nproc:128
Pcrystal executable in: /users/fbodo/SVN_PUB_NEW/bin/Linux-gfortran_new/std/Pcrystal
Master system: Linux c057 5.15.0-47-generic #51-Ubuntu SMP Thu Aug 11 07:51:15 UTC 2022 x86_64 x86_64 x86_64 GNU/Linux
ls -ltr $BINDIR
total 420344
-rwxr-xr-x 1 fbodo linuxusers 101580248 Jul 11 07:52 properties
-rwxr-xr-x 1 fbodo linuxusers 101643032 Jul 11 07:52 Pproperties
-rwxr-xr-x 1 fbodo linuxusers 112716416 Jul 11 07:52 crystal
-rwxr-xr-x 1 fbodo linuxusers 112783328 Jul 11 07:52 Pcrystal
================================================================================
Module loading in /lustre/scratch/client/users/fbodo/prova/tmp_p3266171
================================================================================
Loading gcc and openmpi modules ...
1) # module load gcc/11.2.0
2) # module load openmpi/4.1.6-a4ksrza
================================================================================
Starting Pcrystal SLURM job
================================================================================
Time: Wed Jul 16 08:29:13 AM CDT 2025
SLURM job ID: 20013834
Master hostname: c057
User: fbodo
Input file: TaAs_lda_EOS_ext.d12
Output file: TaAs_lda_EOS_ext.out
Number of processors: 128
Nodes list: c057
================================================================================
Creating temporary directory /lustre/scratch/client/users/fbodo/prova/tmp_p3266171 on each node...
Copying input file TaAs_lda_EOS_ext.d12 on each node...
Copying Pcrystal on each node...
================================================================================
Contents of input file
================================================================================
Tetragonal Phase
CRYSTAL
0 0 0
109
3.4612526 11.59963654
2
273 0. 0. -0.001520907715662
233 0.5 0.5 -0.08247909228434
EOS
RANGE
0.87 1.02 13
END
END
273 13
STUTSC
0 0 5 2. 1.                               ecp-60-dhf-QZV
  24.473650944      0.48239461915E-01
  18.721372549     -0.11130803862
  11.500000000      -4.3871385439
  10.350000000       14.773276225
  9.7732783383      -10.295986879
0 0 1 0. 1.
  3.8125414615       1.0000000000
0 0 1 0. 1.
  1.0507430630       1.0000000000
0 0 1 0. 1.
 0.49732275755       1.0000000000
0 0 1 0. 1.
 0.15602650970       1.0000000000
0 2 4 6. 1.
  23.290413736      0.13565200450E-01
  17.000000000     -0.74349450243E-01
  12.008186536      0.14135027656
  5.0278760583     -0.29185231563
0 2 1 0. 1.
  1.1937124184      0.52092880326
0 2 1 0. 1.
 0.57889707053       1.0000000000
0 2 1 0. 1.
 0.27225198801       1.0000000000
0 2 1 0. 1.
 0.10000000000       1.0000000000
0 3 3 2. 1.
  6.4242952246      0.94769104117E-01
  5.1122245125     -0.18492990619
  1.2009867996      0.44048238003
0 3 1 0. 1.
 0.51923142085       1.0000000000
0 3 1 0. 1.
 0.21323328623       1.0000000000
233 5
STUTLC
0 0 3 2. 1           ecp28MDF
3.069423 0.332502
2.268204 -0.565786
0.858631 -0.168471
0 0 1 0. 1
0.415970 1.0
0 0 1 0. 1
0.180588 1.0
0 2 3 6. 1
1.275524 -0.321208
0.942483 0.300478
0.289765 0.466271
0 2 1 0. 1
0.125374 1.0
99 0
END
DFT
SVWN
ENDDFT
SHRINK
30 30
MAXCYCLE
200
NOSHIFT
FMIXING
70
TOLINTEG
8 8 8 8 20
SMEAR
0.001
TOLDEE
7
END

================================================================================
Time: Wed Jul 16 08:29:14 AM CDT 2025
Starting Pcrystal job in /lustre/scratch/client/users/fbodo/prova/tmp_p3266171 on each node...
================================================================================

command /hpc/m3/spack/opt/spack/linux-ubuntu22.04-zen3/gcc-11.2.0/openmpi-4.1.6-a4ksrzarq4qdqcx545m6o47ytlwsgqyk/bin/mpirun -np 128 Pcrystal < /lustre/scratch/client/users/fbodo/prova/tmp_p3266171/INPUT
/hpc/m3/spack/opt/spack/linux-ubuntu22.04-zen3/gcc-11.2.0/openmpi-4.1.6-a4ksrzarq4qdqcx545m6o47ytlwsgqyk/bin/mpirun
         128 PROCESSORS WORKING

         
 *******************************************************************************
 *                                                                             *
 *                               CRYSTAL23                                     *
 *                      public : 1.0.1 - October 2022                          *
 *                       HTTP://WWW.CRYSTAL.UNITO.IT                           *
 *                                                                             *
 *                              MAIN AUTHORS                                   *
 *                                                                             *
 *  R. DOVESI(1,11), V.R. SAUNDERS(2), C. ROETTI(1,11), R. ORLANDO(1,11),      *
 *  C.M. ZICOVICH-WILSON(1,3), F. PASCALE(4), B. CIVALLERI(1,11),              *
 *  K. DOLL(5), N.M. HARRISON(6), I.J. BUSH(7), Ph. D'ARCO(8),                 *
 *  M. LLUNELL(9), M. CAUSA'(10), Y. NOEL(8), L. MASCHIO(1,11), A. ERBA(1,11)  *
 *  M. RE'RAT(14), S. CASASSA(1,11), B.G. SEARLE(2), J.K. DESMARAIS(1)         *
 *                                                                             *
 *        CONTRIBUTIONS TO THE CODE HAVE ALSO BEEN GIVEN BY                    *
 *                                                                             *
 *  M. FERRABONE(1,11), M. DE LA PIERRE(1,11), M. FERRERO(1,11),               *
 *  J. BAIMA(1,11), E. ALBANESE(1,11), M.F. PEINTINGER(12), R. BAST(13),       *
 *  B. KIRTMAN(15), V. LACIVITA(1,11), R. DEMICHELIS(1,16)                     *
 *  G. BRANDEBURG(17), S. SALUSTRO(1,11), G. SANSONE(1,11)                     *
 *  M.T. RUGGIERO(18), L.E. DAGA(1), L. DONA'(1), A. COSSARD(1)                *
 *                                                                             *
 * (1) THEORETICAL CHEMISTRY GROUP - UNIVERSITA' DI TORINO - TORINO (ITALY)    *
 * (2) SCIENTIFIC COMPUTING DEPARTMENT - STFC DARESBURY (UK)                   *
 * (3) UNIVERSIDAD AUTONOMA DEL ESTADO DE MORELOS - CUERNAVACA (MEXICO)        *
 * (4) UNIVERSITE' DE LORRAINE - NANCY (FRANCE)                                *
 * (5) UNIVERSITAET STUTTGART- STUTTGART (GERMANY)                             *
 * (6) IMPERIAL COLLEGE - LONDON (UK)                                          *
 * (7) SCIENTIFIC COMPUTING DEPARTMENT - STFC RAL (UK)                         *
 * (8) UPMC - SORBONNE UNIVERSITES - PARIS (FRANCE)                            *
 * (9) UNIVERSIDAD DE BARCELONA - BARCELONA (SPAIN)                            *
 *(10) UNIVERSITA' DI NAPOLI "FEDERICO II" - NAPOLI (ITALY)                    *
 *(11) NIS - NANOSTRUCTURED INTERFACES AND SURFACES - TORINO (ITALY)           *
 *(12) MPI FUER CHEMISCHE ENERGIEKONVERSION - MUELHEIM AN DER RUHR (GERMANY)   *
 *(13) UNIVERSITY OF TROMSO - TROMSO (NORWAY)                                  *
 *(14) UNIVERSITE' DE PAU ET DES PAYS DE L'ADOUR - PAU (FRANCE)                *
 *(15) UNIVERSITY OF CALIFORNIA SANTA BARBARA - SANTA BARBARA (USA)            *
 *(16) CURTIN UNIVERSITY - PERTH (AUSTRALIA)                                   *
 *(17) UNIVERSITY COLLEGE LONDON - LONDON (UK)                                 *
 *(18) UNIVERSITY OF VERMONT - BURLINGTON (USA)                                *
 *                                                                             *
 *******************************************************************************
 EEEEEEEEEE STARTING  DATE 16 07 2025 TIME 08:29:17.0
 Tetragonal Phase                                                                

 CRYSTAL CALCULATION
 (INPUT ACCORDING TO THE INTERNATIONAL TABLES FOR X-RAY CRYSTALLOGRAPHY)
 CRYSTAL FAMILY                       :  TETRAGONAL  
 CRYSTAL CLASS  (GROTH - 1921)        :  DITETRAGONAL PYRAMIDAL               

 SPACE GROUP (NONCENTROSYMMETRIC)     :  I 41 M D        

 LATTICE PARAMETERS  (ANGSTROMS AND DEGREES) - CONVENTIONAL CELL
        A           B           C        ALPHA        BETA       GAMMA
     3.46125     3.46125    11.59964    90.00000    90.00000    90.00000


 NUMBER OF IRREDUCIBLE ATOMS IN THE CONVENTIONAL CELL:    2

 INPUT COORDINATES

 ATOM AT. N.              COORDINATES
   1 273     0.000000000000E+00  0.000000000000E+00 -1.520907715662E-03
   2 233     5.000000000000E-01  5.000000000000E-01 -8.247909228434E-02

 *******************************************************************************

 << INFORMATION >>: FROM NOW ON, ALL COORDINATES REFER TO THE PRIMITIVE CELL

 *******************************************************************************

 LATTICE PARAMETERS  (ANGSTROMS AND DEGREES) - PRIMITIVE CELL
       A          B          C        ALPHA      BETA     GAMMA        VOLUME
    6.29508    6.29508    6.29508   148.08583 148.08583  45.75868     69.483386

 COORDINATES OF THE EQUIVALENT ATOMS (FRACTIONAL UNITS)

 N. ATOM EQUIV AT. N.          X                  Y                  Z

   1   1   1  273 TA   -1.52090771566E-03 -1.52090771566E-03  0.00000000000E+00
   2   1   2  273 TA   -2.51520907716E-01  2.48479092284E-01 -5.00000000000E-01

   3   2   1  233 AS    4.17520907716E-01  4.17520907716E-01  0.00000000000E+00
   4   2   2  233 AS    1.67520907716E-01 -3.32479092284E-01 -5.00000000000E-01

 NUMBER OF SYMMETRY OPERATORS         :    8
 *******************************************************************************
 * GEOMETRY EDITING - INPUT COORDINATES ARE GIVEN IN ANGSTROM         
 *******************************************************************************

 GEOMETRY NOW FULLY CONSISTENT WITH THE GROUP
 INFORMATION **** NEW DEFAULT **** FINALRUN 4 FOR GEOMETRY OPTIMIZATIONS
 INFORMATION **** NEW DEFAULT **** OPTGEOM OPTIMIZES BOTH ATOMIC COORDINATES AND CELL PARAMETERS
 INFORMATION **** NEW DEFAULT **** TOL. ON ATOMIC DISP TO REDEFINE REF. GEOMETRY: 0.8 Angs
 INFORMATION **** NEW DEFAULT **** N POINTS TO REDEFINE REF. GEOMETRY: N OF OPT DEGS OF FREEDOM
 INFORMATION **** NEW DEFAULT **** TOL. ON ENERGY TO REDEFINE REF. GEOMETRY: 10**-3*(5*N. ATOMS)

 IMPORTANT INFORMATION:
 THE COORDINATE SYSTEM ADOPTED IN THE OPTIMIZATION IS NOT IN
 GENERAL HOMOGENEOUS UNITS. FOR THIS REASON THE GRADIENT AND 
 HESSIAN MATRIX IN TERMS OF THIS SYSTEM ARE GIVEN WITHOUT
 UNITS. FOR MORE DETAILS SEE THE MANUAL.

 INITIAL TRUST RADIUS         0.50000 MAXIMUM TRUST RADIUS               4.00000
 MAXIMUM GRADIENT COMPONENT   0.00045 MAXIMUM DISPLACEMENT COMPONENT     0.00180
 R.M.S. OF GRADIENT COMPONENT 0.00030 R.M.S. OF DISPLACEMENT COMPONENTS  0.00120
 THRESHOLD ON ENERGY CHANGE 0.100E-06 EXTRAPOLATING POLYNOMIAL ORDER           2
 MAXIMUM ALLOWED NUMBER OF STEPS   -1 SORTING OF ENERGY POINTS:               NO
 ANALYTICAL  GRADIENT                 HESSIAN UPDATING                      BFGS
 STEP SIZE NUMERICAL GRADIENT 0.00100
 INITIAL HESSIAN MATRIX: SCHLEGEL MODEL 2
 *******************************************************************************


 EOSEOSEOSEOSEOSEOSEOSEOSEOSEOSEOSEOSEOSEOSEOSEOSEOSEOSEOSEOSEOSEOSEOSEOSEOSEOS

                       EQUATION OF STATE CALCULATION

 INFORMATION **** TOLDEX **** CONVERGENCE CRITERION FOR RMS DISPLACEMENT MODIFIED  6.200000E-04
 INFORMATION **** TOLDEG **** MODIFY CONVERGENCE CRITERION FOR RMS GRADIENT  3.000000E-04
 INFORMATION **** TOLDEE **** CONVERGENCE CRITERION FOR ENERGY MODIFIED: 10**-           8

 GCALCO - MAX INDICES DIRECT LATTICE VECTOR    13    13    18
 NO.OF VECTORS CREATED 6999 STARS  473 RMAX    93.12215 BOHR

 GEOMETRY FOR WAVE FUNCTION - DIMENSIONALITY OF THE SYSTEM    3
 (NON PERIODIC DIRECTION: LATTICE PARAMETER FORMALLY SET TO 500)
 *******************************************************************************
 LATTICE PARAMETERS (ANGSTROMS AND DEGREES) - BOHR = 0.5291772083 ANGSTROM
 PRIMITIVE CELL - CENTRING CODE 6/0 VOLUME=    69.483386 - DENSITY 12.230 g/cm^3
         A              B              C           ALPHA      BETA       GAMMA 
     6.29507957     6.29507957     6.29507957   148.085828 148.085828  45.758682
 *******************************************************************************
 ATOMS IN THE ASYMMETRIC UNIT    2 - ATOMS IN THE UNIT CELL:    4
     ATOM                 X/A                 Y/B                 Z/C    
 *******************************************************************************
      1 T 273 TA   -1.520907715662E-03 -1.520907715662E-03  3.397459066778E-20
      2 F 273 TA   -2.515209077157E-01  2.484790922843E-01 -5.000000000000E-01
      3 T 233 AS    4.175209077157E-01  4.175209077157E-01 -2.220446049250E-16
      4 F 233 AS    1.675209077157E-01 -3.324790922843E-01 -5.000000000000E-01

 TRANSFORMATION MATRIX PRIMITIVE-CRYSTALLOGRAPHIC CELL
  0.0000  1.0000  1.0000  1.0000  0.0000  1.0000  1.0000  1.0000  0.0000

 *******************************************************************************
 CRYSTALLOGRAPHIC CELL (VOLUME=        138.96677256)
         A              B              C           ALPHA      BETA       GAMMA 
     3.46125260     3.46125260    11.59963654    90.000000  90.000000  90.000000

 COORDINATES IN THE CRYSTALLOGRAPHIC CELL
     ATOM                 X/A                 Y/B                 Z/C    
 *******************************************************************************
      1 T 273 TA   -6.284333229766E-20  7.983062763155E-20 -1.520907715662E-03
      2 F 273 TA   -5.000000000000E-01  0.000000000000E+00 -2.515209077157E-01
      3 T 233 AS    5.000000000000E-01  5.000000000000E-01 -8.247909228434E-02
      4 F 233 AS    0.000000000000E+00 -5.000000000000E-01 -3.324790922843E-01

 T = ATOM BELONGING TO THE ASYMMETRIC UNIT

 ****    8 SYMMOPS - TRANSLATORS IN FRACTIONAL UNITS
 **** MATRICES AND TRANSLATORS IN THE CRYSTALLOGRAPHIC REFERENCE FRAME
   V INV                    ROTATION MATRICES                   TRANSLATORS
   1   1  1.00  0.00  0.00  0.00  1.00  0.00  0.00  0.00  1.00  0.00  0.00  0.00
   2   2 -0.00  1.00 -1.00  1.00  0.00 -1.00  0.00 -0.00 -1.00  0.00  0.00  0.00
   3   4 -0.00  1.00  0.00  0.00  1.00 -1.00 -1.00  1.00 -0.00  0.75  0.25  0.50
   4   3  1.00 -0.00 -1.00  1.00  0.00 -0.00  1.00 -1.00  0.00  0.75  0.25  0.50
   5   5  1.00 -0.00  0.00  1.00  0.00 -1.00  1.00 -1.00 -0.00  0.00  0.00  0.00
   6   6 -0.00  1.00 -1.00  0.00  1.00 -0.00 -1.00  1.00  0.00  0.00  0.00  0.00
   7   7 -0.00  1.00  0.00  1.00  0.00 -0.00  0.00 -0.00  1.00  0.75  0.25  0.50
   8   8  1.00 -0.00 -1.00  0.00  1.00 -1.00 -0.00  0.00 -1.00  0.75  0.25  0.50

 DIRECT LATTICE VECTORS CARTESIAN COMPONENTS (ANGSTROM)
          X                    Y                    Z
  -0.173062630000E+01   0.173062630000E+01   0.579981827000E+01
   0.173062630000E+01  -0.173062630000E+01   0.579981827000E+01
   0.173062630000E+01   0.173062630000E+01  -0.579981827000E+01


 CARTESIAN COORDINATES - PRIMITIVE CELL
 *******************************************************************************
 *      ATOM          X(ANGSTROM)         Y(ANGSTROM)         Z(ANGSTROM)
 *******************************************************************************
    1   273 TA   -2.175166473079E-19  2.763139674493E-19 -1.764197671256E-02
    2   273 TA    1.730626300000E+00  0.000000000000E+00 -2.917551111713E+00
    3   233 AS   -1.730626300000E+00 -1.730626300000E+00 -9.567274926475E-01
    4   233 AS    0.000000000000E+00  1.730626300000E+00 -3.856636627647E+00

 *******************************************************************************
 *** PSEUDOPOTENTIAL INFORMATION ***
 *******************************************************************************

 ATOMIC NUMBER  73, NUCLEAR CHARGE 13.000, STUTTGART SMALL CORE    PSEUDOPOTENTIAL
   TYPE       EXPONENT    C.(AREP)            C.(SOREP)   N      EXPONENT    C.(AREP)     C.(SOREP)   N
  P0 TMS    10.3180690  454.6006490    0.0000000   0    10.5402670    2.8379750    0.0000000   2
             2.5747260   -0.8147360    0.0000000   0
  P1 TMS     8.7433420   96.9107830 -193.8215660   0     7.9162230  195.8504320  195.8504320   0
             9.2757360    4.8125240   -9.6250470   2     8.1016750    6.3385120    6.3385120   2
             2.0771270   -0.4591730    0.9183450   0     2.7503720   -0.6445860   -0.6445860   0
  P2 TMS     5.4473140   45.9699760  -45.9699760   0     5.2125450   69.6389720   46.4259810   0
             5.8843580    0.8029330   -0.8029330   2     5.6495790    0.4295950    0.2863970   2
             1.3881800   -0.3072270    0.3072270   0     1.2943980   -0.4615600   -0.3077070   0
  P3 TMS     2.1612750    5.7577730   -3.8385150   0     2.1259390    7.6781670    3.8390830   0
  P4 TMS     3.1459200   -5.6840660    2.8420330   0     3.1279420   -7.0623130   -2.8249250   0

 ATOMIC NUMBER  33, NUCLEAR CHARGE  5.000, STUTTGART LARGE CORE    PSEUDOPOTENTIAL
   TYPE       EXPONENT    C.(AREP)            C.(SOREP)   N      EXPONENT    C.(AREP)     C.(SOREP)   N
  P0 TMS     3.6251500   54.9261640    0.0000000   0
  P1 TMS     3.4069530   26.0012120  -34.6682820   0     3.2601950   32.9351990   32.9351990   0
  P2 TMS     1.3559500    2.6297420   -2.6297420   0     1.3418430    3.9300510    2.6200340   0
  P3 TMS     5.3038500   -2.5680850    1.7120560   0     5.4861710   -4.6529180   -2.3264590   0

 *******************************************************************************
 LOCAL ATOMIC FUNCTIONS BASIS SET
 *******************************************************************************
   ATOM   X(AU)   Y(AU)   Z(AU)  N. TYPE  EXPONENT  S COEF   P COEF   D/F/G COEF
 *******************************************************************************
   1 TA  -0.000   0.000  -0.033
                                  1 S  
                                         2.447E+01 4.824E-02 0.000E+00 0.000E+00
                                         1.872E+01-1.113E-01 0.000E+00 0.000E+00
                                         1.150E+01-4.387E+00 0.000E+00 0.000E+00
                                         1.035E+01 1.477E+01 0.000E+00 0.000E+00
                                         9.773E+00-1.030E+01 0.000E+00 0.000E+00
                                  2 S  
                                         3.813E+00 1.000E+00 0.000E+00 0.000E+00
                                  3 S  
                                         1.051E+00 1.000E+00 0.000E+00 0.000E+00
                                  4 S  
                                         4.973E-01 1.000E+00 0.000E+00 0.000E+00
                                  5 S  
                                         1.560E-01 1.000E+00 0.000E+00 0.000E+00
                           6-     8 P  
                                         2.329E+01 0.000E+00 1.357E-02 0.000E+00
                                         1.700E+01 0.000E+00-7.435E-02 0.000E+00
                                         1.201E+01 0.000E+00 1.414E-01 0.000E+00
                                         5.028E+00 0.000E+00-2.919E-01 0.000E+00
                           9-    11 P  
                                         1.194E+00 0.000E+00 5.209E-01 0.000E+00
                          12-    14 P  
                                         5.789E-01 0.000E+00 1.000E+00 0.000E+00
                          15-    17 P  
                                         2.723E-01 0.000E+00 1.000E+00 0.000E+00
                          18-    20 P  
                                         1.000E-01 0.000E+00 1.000E+00 0.000E+00
                          21-    25 D  
                                         6.424E+00 0.000E+00 0.000E+00 9.477E-02
                                         5.112E+00 0.000E+00 0.000E+00-1.849E-01
                                         1.201E+00 0.000E+00 0.000E+00 4.405E-01
                          26-    30 D  
                                         5.192E-01 0.000E+00 0.000E+00 1.000E+00
                          31-    35 D  
                                         2.132E-01 0.000E+00 0.000E+00 1.000E+00
   2 TA   3.270   0.000  -5.513
   3 AS  -3.270  -3.270  -1.808
                                 71 S  
                                         3.069E+00 3.325E-01 0.000E+00 0.000E+00
                                         2.268E+00-5.658E-01 0.000E+00 0.000E+00
                                         8.586E-01-1.685E-01 0.000E+00 0.000E+00
                                 72 S  
                                         4.160E-01 1.000E+00 0.000E+00 0.000E+00
                                 73 S  
                                         1.806E-01 1.000E+00 0.000E+00 0.000E+00
                          74-    76 P  
                                         1.276E+00 0.000E+00-3.212E-01 0.000E+00
                                         9.425E-01 0.000E+00 3.005E-01 0.000E+00
                                         2.898E-01 0.000E+00 4.663E-01 0.000E+00
                          77-    79 P  
                                         1.254E-01 0.000E+00 1.000E+00 0.000E+00
   4 AS   0.000   3.270  -7.288
 INFORMATION **** SET_MPP **** PCRYSTAL CALCULATION
 INFORMATION **** READM2 **** NEW DEFAULT: FOCK/KS MATRIX MIXING SET TO 30 %
 INFORMATION **** READM2 **** NEW DEFAULT: FULL DIRECT SCF MODE
 INFORMATION **** READM2 **** NEW DEFAULT: COULOMB BIPOLAR BUFFER SET TO 32 Mb
 INFORMATION **** READM2 **** NEW DEFAULT: EXCHANGE BIPOLAR BUFFER SET TO 32 Mb

 *******************************************************************************
 NEW DEFAULT: DFT INTEGRATION GRID INCREASED TO XLGRID
 NEW DEFAULT: DIIS ACCELERATOR ACTIVE
 USE KEYWORD NODIIS TO TURN IT OFF
 *******************************************************************************

 INFORMATION **** MAXCYCLE **** MAX NUMBER OF SCF CYCLES SET TO         200
 INFORMATION **** NOSHIFT **** LEVEL SHIFTER DISABLED
 INFORMATION **** TOLINTEG **** COULOMB AND EXCHANGE SERIES TOLERANCES MODIFIED
 INFORMATION **** SMEAR **** FERMI SMEARING ACTIVE
 FERMI SMEARING - TEMPERATURE SMEARING OF FERMI SURFACE  0.1000E-02
 INFORMATION **** TOLDEE **** SCF TOL ON TOTAL ENERGY SET TO           7
 *******************************************************************************
 N. OF ATOMS PER CELL         4  COULOMB OVERLAP TOL         (T1) 10**   -8
 NUMBER OF SHELLS            36  COULOMB PENETRATION TOL     (T2) 10**   -8
 NUMBER OF AO                88  EXCHANGE OVERLAP TOL        (T3) 10**   20
 N. OF ELECTRONS PER CELL    36  EXCHANGE PSEUDO OVP (F(G))  (T4) 10**   20
 CORE ELECTRONS PER CELL      0  EXCHANGE PSEUDO OVP (P(G))  (T5) 10**   20
 N. OF SYMMETRY OPERATORS     8  POLE ORDER IN MONO ZONE                  4
 *******************************************************************************
 TYPE OF CALCULATION :  RESTRICTED CLOSED SHELL
 KOHN-SHAM HAMILTONIAN

 (EXCHANGE)[CORRELATION] FUNCTIONAL:(DIRAC-SLATER LDA)[VOSKO-WILK-NUSAIR]

 CORE  PSEUDO POTENTIAL         TOL. ON PSEUDO              (TP) 10**- 6

 CAPPA:IS1 30;IS2 30;IS3 30; K PTS MONK NET1992; SYMMOPS:K SPACE  16;G SPACE   8

 *******************************************************************************
 MAX NUMBER OF SCF CYCLES     200  CONVERGENCE ON DELTAP        10**-17
 WEIGHT OF F(I) IN F(I+1)      70% CONVERGENCE ON ENERGY        10**- 7
 SHRINK. FACT.(MONKH.)   30 30 30  NUMBER OF K POINTS IN THE IBZ   1992
 SHRINKING FACTOR(GILAT NET)   30  NUMBER OF K POINTS(GILAT NET)   1992
 *******************************************************************************
 *** K POINTS COORDINATES (OBLIQUE COORDINATES IN UNITS OF IS = 30)
   1-R(  0  0  0)   2-C(  1  0  0)   3-C(  2  0  0)   4-C(  3  0  0)
   5-C(  4  0  0)   6-C(  5  0  0)   7-C(  6  0  0)   8-C(  7  0  0)
   9-C(  8  0  0)  10-C(  9  0  0)  11-C( 10  0  0)  12-C( 11  0  0)
  13-C( 12  0  0)  14-C( 13  0  0)  15-C( 14  0  0)  16-R( 15  0  0)
  17-C(  1  1  0)  18-C(  2  1  0)  19-C(  3  1  0)  20-C(  4  1  0)
  21-C(  5  1  0)  22-C(  6  1  0)  23-C(  7  1  0)  24-C(  8  1  0)
  25-C(  9  1  0)  26-C( 10  1  0)  27-C( 11  1  0)  28-C( 12  1  0)
  29-C( 13  1  0)  30-C( 14  1  0)  31-C( 15  1  0)  32-C( 16  1  0)
  33-C( 17  1  0)  34-C( 18  1  0)  35-C( 19  1  0)  36-C( 20  1  0)
  37-C( 21  1  0)  38-C( 22  1  0)  39-C( 23  1  0)  40-C( 24  1  0)
  41-C( 25  1  0)  42-C( 26  1  0)  43-C( 27  1  0)  44-C( 28  1  0)
  45-C( 29  1  0)  46-C(  2  2  0)  47-C(  3  2  0)  48-C(  4  2  0)
  49-C(  5  2  0)  50-C(  6  2  0)  51-C(  7  2  0)  52-C(  8  2  0)
  53-C(  9  2  0)  54-C( 10  2  0)  55-C( 11  2  0)  56-C( 12  2  0)
  57-C( 13  2  0)  58-C( 14  2  0)  59-C( 15  2  0)  60-C( 16  2  0)
  61-C( 17  2  0)  62-C( 18  2  0)  63-C( 19  2  0)  64-C( 20  2  0)
  65-C( 21  2  0)  66-C( 22  2  0)  67-C( 23  2  0)  68-C( 24  2  0)
  69-C( 25  2  0)  70-C( 26  2  0)  71-C( 27  2  0)  72-C( 28  2  0)
  73-C(  3  3  0)  74-C(  4  3  0)  75-C(  5  3  0)  76-C(  6  3  0)
  77-C(  7  3  0)  78-C(  8  3  0)  79-C(  9  3  0)  80-C( 10  3  0)
  81-C( 11  3  0)  82-C( 12  3  0)  83-C( 13  3  0)  84-C( 14  3  0)
  85-C( 15  3  0)  86-C( 16  3  0)  87-C( 17  3  0)  88-C( 18  3  0)
  89-C( 19  3  0)  90-C( 20  3  0)  91-C( 21  3  0)  92-C( 22  3  0)
  93-C( 23  3  0)  94-C( 24  3  0)  95-C( 25  3  0)  96-C( 26  3  0)
  97-C( 27  3  0)  98-C(  4  4  0)  99-C(  5  4  0) 100-C(  6  4  0)
 101-C(  7  4  0) 102-C(  8  4  0) 103-C(  9  4  0) 104-C( 10  4  0)
 105-C( 11  4  0) 106-C( 12  4  0) 107-C( 13  4  0) 108-C( 14  4  0)
 109-C( 15  4  0) 110-C( 16  4  0) 111-C( 17  4  0) 112-C( 18  4  0)
 113-C( 19  4  0) 114-C( 20  4  0) 115-C( 21  4  0) 116-C( 22  4  0)
 117-C( 23  4  0) 118-C( 24  4  0) 119-C( 25  4  0) 120-C( 26  4  0)
 121-C(  5  5  0) 122-C(  6  5  0) 123-C(  7  5  0) 124-C(  8  5  0)
 125-C(  9  5  0) 126-C( 10  5  0) 127-C( 11  5  0) 128-C( 12  5  0)
 129-C( 13  5  0) 130-C( 14  5  0) 131-C( 15  5  0) 132-C( 16  5  0)
 133-C( 17  5  0) 134-C( 18  5  0) 135-C( 19  5  0) 136-C( 20  5  0)
 137-C( 21  5  0) 138-C( 22  5  0) 139-C( 23  5  0) 140-C( 24  5  0)
 141-C( 25  5  0) 142-C(  6  6  0) 143-C(  7  6  0) 144-C(  8  6  0)
 145-C(  9  6  0) 146-C( 10  6  0) 147-C( 11  6  0) 148-C( 12  6  0)
 149-C( 13  6  0) 150-C( 14  6  0) 151-C( 15  6  0) 152-C( 16  6  0)
 153-C( 17  6  0) 154-C( 18  6  0) 155-C( 19  6  0) 156-C( 20  6  0)
 157-C( 21  6  0) 158-C( 22  6  0) 159-C( 23  6  0) 160-C( 24  6  0)
 161-C(  7  7  0) 162-C(  8  7  0) 163-C(  9  7  0) 164-C( 10  7  0)
 165-C( 11  7  0) 166-C( 12  7  0) 167-C( 13  7  0) 168-C( 14  7  0)
 169-C( 15  7  0) 170-C( 16  7  0) 171-C( 17  7  0) 172-C( 18  7  0)
 173-C( 19  7  0) 174-C( 20  7  0) 175-C( 21  7  0) 176-C( 22  7  0)
 177-C( 23  7  0) 178-C(  8  8  0) 179-C(  9  8  0) 180-C( 10  8  0)
 181-C( 11  8  0) 182-C( 12  8  0) 183-C( 13  8  0) 184-C( 14  8  0)
 185-C( 15  8  0) 186-C( 16  8  0) 187-C( 17  8  0) 188-C( 18  8  0)
 189-C( 19  8  0) 190-C( 20  8  0) 191-C( 21  8  0) 192-C( 22  8  0)
 193-C(  9  9  0) 194-C( 10  9  0) 195-C( 11  9  0) 196-C( 12  9  0)
 197-C( 13  9  0) 198-C( 14  9  0) 199-C( 15  9  0) 200-C( 16  9  0)
 201-C( 17  9  0) 202-C( 18  9  0) 203-C( 19  9  0) 204-C( 20  9  0)
 205-C( 21  9  0) 206-C( 10 10  0) 207-C( 11 10  0) 208-C( 12 10  0)
 209-C( 13 10  0) 210-C( 14 10  0) 211-C( 15 10  0) 212-C( 16 10  0)
 213-C( 17 10  0) 214-C( 18 10  0) 215-C( 19 10  0) 216-C( 20 10  0)
 217-C( 11 11  0) 218-C( 12 11  0) 219-C( 13 11  0) 220-C( 14 11  0)
 221-C( 15 11  0) 222-C( 16 11  0) 223-C( 17 11  0) 224-C( 18 11  0)
 225-C( 19 11  0) 226-C( 12 12  0) 227-C( 13 12  0) 228-C( 14 12  0)
 229-C( 15 12  0) 230-C( 16 12  0) 231-C( 17 12  0) 232-C( 18 12  0)
 233-C( 13 13  0) 234-C( 14 13  0) 235-C( 15 13  0) 236-C( 16 13  0)
 237-C( 17 13  0) 238-C( 14 14  0) 239-C( 15 14  0) 240-C( 16 14  0)
 241-R( 15 15  0) 242-C(  1  1  1) 243-C(  2  1  1) 244-C(  3  1  1)
 245-C(  4  1  1) 246-C(  5  1  1) 247-C(  6  1  1) 248-C(  7  1  1)
 249-C(  8  1  1) 250-C(  9  1  1) 251-C( 10  1  1) 252-C( 11  1  1)
 253-C( 12  1  1) 254-C( 13  1  1) 255-C( 14  1  1) 256-C( 29  1  1)
 257-C(  2  2  1) 258-C(  3  2  1) 259-C(  4  2  1) 260-C(  5  2  1)
 261-C(  6  2  1) 262-C(  7  2  1) 263-C(  8  2  1) 264-C(  9  2  1)
 265-C( 10  2  1) 266-C( 11  2  1) 267-C( 12  2  1) 268-C( 13  2  1)
 269-C( 14  2  1) 270-C( 15  2  1) 271-C( 16  2  1) 272-C( 17  2  1)
 273-C( 18  2  1) 274-C( 19  2  1) 275-C( 20  2  1) 276-C( 21  2  1)
 277-C( 22  2  1) 278-C( 23  2  1) 279-C( 24  2  1) 280-C( 25  2  1)
 281-C( 26  2  1) 282-C( 28  2  1) 283-C( 29  2  1) 284-C(  3  3  1)
 285-C(  4  3  1) 286-C(  5  3  1) 287-C(  6  3  1) 288-C(  7  3  1)
 289-C(  8  3  1) 290-C(  9  3  1) 291-C( 10  3  1) 292-C( 11  3  1)
 293-C( 12  3  1) 294-C( 13  3  1) 295-C( 14  3  1) 296-C( 15  3  1)
 297-C( 16  3  1) 298-C( 17  3  1) 299-C( 18  3  1) 300-C( 19  3  1)
 301-C( 20  3  1) 302-C( 21  3  1) 303-C( 22  3  1) 304-C( 23  3  1)
 305-C( 24  3  1) 306-C( 25  3  1) 307-C( 27  3  1) 308-C( 28  3  1)
 309-C( 29  3  1) 310-C(  4  4  1) 311-C(  5  4  1) 312-C(  6  4  1)
 313-C(  7  4  1) 314-C(  8  4  1) 315-C(  9  4  1) 316-C( 10  4  1)
 317-C( 11  4  1) 318-C( 12  4  1) 319-C( 13  4  1) 320-C( 14  4  1)
 321-C( 15  4  1) 322-C( 16  4  1) 323-C( 17  4  1) 324-C( 18  4  1)
 325-C( 19  4  1) 326-C( 20  4  1) 327-C( 21  4  1) 328-C( 22  4  1)
 329-C( 23  4  1) 330-C( 24  4  1) 331-C( 26  4  1) 332-C( 27  4  1)
 333-C( 28  4  1) 334-C( 29  4  1) 335-C(  5  5  1) 336-C(  6  5  1)
 337-C(  7  5  1) 338-C(  8  5  1) 339-C(  9  5  1) 340-C( 10  5  1)
 341-C( 11  5  1) 342-C( 12  5  1) 343-C( 13  5  1) 344-C( 14  5  1)
 345-C( 15  5  1) 346-C( 16  5  1) 347-C( 17  5  1) 348-C( 18  5  1)
 349-C( 19  5  1) 350-C( 20  5  1) 351-C( 21  5  1) 352-C( 22  5  1)
 353-C( 23  5  1) 354-C( 25  5  1) 355-C( 26  5  1) 356-C( 27  5  1)
 357-C( 28  5  1) 358-C( 29  5  1) 359-C(  6  6  1) 360-C(  7  6  1)
 361-C(  8  6  1) 362-C(  9  6  1) 363-C( 10  6  1) 364-C( 11  6  1)
 365-C( 12  6  1) 366-C( 13  6  1) 367-C( 14  6  1) 368-C( 15  6  1)
 369-C( 16  6  1) 370-C( 17  6  1) 371-C( 18  6  1) 372-C( 19  6  1)
 373-C( 20  6  1) 374-C( 21  6  1) 375-C( 22  6  1) 376-C( 24  6  1)
 377-C( 25  6  1) 378-C( 26  6  1) 379-C( 27  6  1) 380-C( 28  6  1)
 381-C( 29  6  1) 382-C(  7  7  1) 383-C(  8  7  1) 384-C(  9  7  1)
 385-C( 10  7  1) 386-C( 11  7  1) 387-C( 12  7  1) 388-C( 13  7  1)
 389-C( 14  7  1) 390-C( 15  7  1) 391-C( 16  7  1) 392-C( 17  7  1)
 393-C( 18  7  1) 394-C( 19  7  1) 395-C( 20  7  1) 396-C( 21  7  1)
 397-C( 23  7  1) 398-C( 24  7  1) 399-C( 25  7  1) 400-C( 26  7  1)
 401-C( 27  7  1) 402-C( 28  7  1) 403-C( 29  7  1) 404-C(  8  8  1)
 405-C(  9  8  1) 406-C( 10  8  1) 407-C( 11  8  1) 408-C( 12  8  1)
 409-C( 13  8  1) 410-C( 14  8  1) 411-C( 15  8  1) 412-C( 16  8  1)
 413-C( 17  8  1) 414-C( 18  8  1) 415-C( 19  8  1) 416-C( 20  8  1)
 417-C( 22  8  1) 418-C( 23  8  1) 419-C( 24  8  1) 420-C( 25  8  1)
 421-C( 26  8  1) 422-C( 27  8  1) 423-C( 28  8  1) 424-C( 29  8  1)
 425-C(  9  9  1) 426-C( 10  9  1) 427-C( 11  9  1) 428-C( 12  9  1)
 429-C( 13  9  1) 430-C( 14  9  1) 431-C( 15  9  1) 432-C( 16  9  1)
 433-C( 17  9  1) 434-C( 18  9  1) 435-C( 19  9  1) 436-C( 21  9  1)
 437-C( 22  9  1) 438-C( 23  9  1) 439-C( 24  9  1) 440-C( 25  9  1)
 441-C( 26  9  1) 442-C( 27  9  1) 443-C( 28  9  1) 444-C( 29  9  1)
 445-C( 10 10  1) 446-C( 11 10  1) 447-C( 12 10  1) 448-C( 13 10  1)
 449-C( 14 10  1) 450-C( 15 10  1) 451-C( 16 10  1) 452-C( 17 10  1)
 453-C( 18 10  1) 454-C( 20 10  1) 455-C( 21 10  1) 456-C( 22 10  1)
 457-C( 23 10  1) 458-C( 24 10  1) 459-C( 25 10  1) 460-C( 26 10  1)
 461-C( 27 10  1) 462-C( 28 10  1) 463-C( 29 10  1) 464-C( 11 11  1)
 465-C( 12 11  1) 466-C( 13 11  1) 467-C( 14 11  1) 468-C( 15 11  1)
 469-C( 16 11  1) 470-C( 17 11  1) 471-C( 19 11  1) 472-C( 20 11  1)
 473-C( 21 11  1) 474-C( 22 11  1) 475-C( 23 11  1) 476-C( 24 11  1)
 477-C( 25 11  1) 478-C( 26 11  1) 479-C( 27 11  1) 480-C( 28 11  1)
 481-C( 29 11  1) 482-C( 12 12  1) 483-C( 13 12  1) 484-C( 14 12  1)
 485-C( 15 12  1) 486-C( 16 12  1) 487-C( 18 12  1) 488-C( 19 12  1)
 489-C( 20 12  1) 490-C( 21 12  1) 491-C( 22 12  1) 492-C( 23 12  1)
 493-C( 24 12  1) 494-C( 25 12  1) 495-C( 26 12  1) 496-C( 27 12  1)
 497-C( 28 12  1) 498-C( 29 12  1) 499-C( 13 13  1) 500-C( 14 13  1)
 501-C( 15 13  1) 502-C( 17 13  1) 503-C( 18 13  1) 504-C( 19 13  1)
 505-C( 20 13  1) 506-C( 21 13  1) 507-C( 22 13  1) 508-C( 23 13  1)
 509-C( 24 13  1) 510-C( 25 13  1) 511-C( 26 13  1) 512-C( 27 13  1)
 513-C( 28 13  1) 514-C( 29 13  1) 515-C( 14 14  1) 516-C( 16 14  1)
 517-C( 17 14  1) 518-C( 18 14  1) 519-C( 19 14  1) 520-C( 20 14  1)
 521-C( 21 14  1) 522-C( 22 14  1) 523-C( 23 14  1) 524-C( 24 14  1)
 525-C( 25 14  1) 526-C( 26 14  1) 527-C( 27 14  1) 528-C( 28 14  1)
 529-C( 29 14  1) 530-C( 15 15  1) 531-C( 16 15  1) 532-C( 17 15  1)
 533-C( 18 15  1) 534-C( 19 15  1) 535-C( 20 15  1) 536-C( 21 15  1)
 537-C( 22 15  1) 538-C( 23 15  1) 539-C( 24 15  1) 540-C( 25 15  1)
 541-C( 26 15  1) 542-C( 27 15  1) 543-C( 28 15  1) 544-C( 29 15  1)
 545-C( 16 16  1) 546-C( 17 16  1) 547-C( 18 16  1) 548-C( 19 16  1)
 549-C( 20 16  1) 550-C( 21 16  1) 551-C( 22 16  1) 552-C( 23 16  1)
 553-C( 24 16  1) 554-C( 25 16  1) 555-C( 26 16  1) 556-C( 27 16  1)
 557-C( 28 16  1) 558-C( 29 16  1) 559-C( 17 17  1) 560-C( 18 17  1)
 561-C( 19 17  1) 562-C( 20 17  1) 563-C( 21 17  1) 564-C( 22 17  1)
 565-C( 23 17  1) 566-C( 24 17  1) 567-C( 25 17  1) 568-C( 26 17  1)
 569-C( 27 17  1) 570-C( 28 17  1) 571-C( 29 17  1) 572-C( 18 18  1)
 573-C( 19 18  1) 574-C( 20 18  1) 575-C( 21 18  1) 576-C( 22 18  1)
 577-C( 23 18  1) 578-C( 24 18  1) 579-C( 25 18  1) 580-C( 26 18  1)
 581-C( 27 18  1) 582-C( 28 18  1) 583-C( 29 18  1) 584-C( 19 19  1)
 585-C( 20 19  1) 586-C( 21 19  1) 587-C( 22 19  1) 588-C( 23 19  1)
 589-C( 24 19  1) 590-C( 25 19  1) 591-C( 26 19  1) 592-C( 27 19  1)
 593-C( 28 19  1) 594-C( 29 19  1) 595-C( 20 20  1) 596-C( 21 20  1)
 597-C( 22 20  1) 598-C( 23 20  1) 599-C( 24 20  1) 600-C( 25 20  1)
 601-C( 26 20  1) 602-C( 27 20  1) 603-C( 28 20  1) 604-C( 29 20  1)
 605-C( 21 21  1) 606-C( 22 21  1) 607-C( 23 21  1) 608-C( 24 21  1)
 609-C( 25 21  1) 610-C( 26 21  1) 611-C( 27 21  1) 612-C( 28 21  1)
 613-C( 29 21  1) 614-C( 22 22  1) 615-C( 23 22  1) 616-C( 24 22  1)
 617-C( 25 22  1) 618-C( 26 22  1) 619-C( 27 22  1) 620-C( 28 22  1)
 621-C( 29 22  1) 622-C( 23 23  1) 623-C( 24 23  1) 624-C( 25 23  1)
 625-C( 26 23  1) 626-C( 27 23  1) 627-C( 28 23  1) 628-C( 29 23  1)
 629-C( 24 24  1) 630-C( 25 24  1) 631-C( 26 24  1) 632-C( 27 24  1)
 633-C( 28 24  1) 634-C( 29 24  1) 635-C( 25 25  1) 636-C( 26 25  1)
 637-C( 27 25  1) 638-C( 28 25  1) 639-C( 29 25  1) 640-C( 26 26  1)
 641-C( 27 26  1) 642-C( 28 26  1) 643-C( 29 26  1) 644-C( 27 27  1)
 645-C( 28 27  1) 646-C( 29 27  1) 647-C( 28 28  1) 648-C( 29 28  1)
 649-C( 29 29  1) 650-C(  2  2  2) 651-C(  3  2  2) 652-C(  4  2  2)
 653-C(  5  2  2) 654-C(  6  2  2) 655-C(  7  2  2) 656-C(  8  2  2)
 657-C(  9  2  2) 658-C( 10  2  2) 659-C( 11  2  2) 660-C( 12  2  2)
 661-C( 13  2  2) 662-C( 28  2  2) 663-C(  3  3  2) 664-C(  4  3  2)
 665-C(  5  3  2) 666-C(  6  3  2) 667-C(  7  3  2) 668-C(  8  3  2)
 669-C(  9  3  2) 670-C( 10  3  2) 671-C( 11  3  2) 672-C( 12  3  2)
 673-C( 13  3  2) 674-C( 14  3  2) 675-C( 15  3  2) 676-C( 16  3  2)
 677-C( 17  3  2) 678-C( 18  3  2) 679-C( 19  3  2) 680-C( 20  3  2)
 681-C( 21  3  2) 682-C( 22  3  2) 683-C( 23  3  2) 684-C( 27  3  2)
 685-C( 28  3  2) 686-C(  4  4  2) 687-C(  5  4  2) 688-C(  6  4  2)
 689-C(  7  4  2) 690-C(  8  4  2) 691-C(  9  4  2) 692-C( 10  4  2)
 693-C( 11  4  2) 694-C( 12  4  2) 695-C( 13  4  2) 696-C( 14  4  2)
 697-C( 15  4  2) 698-C( 16  4  2) 699-C( 17  4  2) 700-C( 18  4  2)
 701-C( 19  4  2) 702-C( 20  4  2) 703-C( 21  4  2) 704-C( 22  4  2)
 705-C( 26  4  2) 706-C( 27  4  2) 707-C( 28  4  2) 708-C(  5  5  2)
 709-C(  6  5  2) 710-C(  7  5  2) 711-C(  8  5  2) 712-C(  9  5  2)
 713-C( 10  5  2) 714-C( 11  5  2) 715-C( 12  5  2) 716-C( 13  5  2)
 717-C( 14  5  2) 718-C( 15  5  2) 719-C( 16  5  2) 720-C( 17  5  2)
 721-C( 18  5  2) 722-C( 19  5  2) 723-C( 20  5  2) 724-C( 21  5  2)
 725-C( 25  5  2) 726-C( 26  5  2) 727-C( 27  5  2) 728-C( 28  5  2)
 729-C(  6  6  2) 730-C(  7  6  2) 731-C(  8  6  2) 732-C(  9  6  2)
 733-C( 10  6  2) 734-C( 11  6  2) 735-C( 12  6  2) 736-C( 13  6  2)
 737-C( 14  6  2) 738-C( 15  6  2) 739-C( 16  6  2) 740-C( 17  6  2)
 741-C( 18  6  2) 742-C( 19  6  2) 743-C( 20  6  2) 744-C( 24  6  2)
 745-C( 25  6  2) 746-C( 26  6  2) 747-C( 27  6  2) 748-C( 28  6  2)
 749-C(  7  7  2) 750-C(  8  7  2) 751-C(  9  7  2) 752-C( 10  7  2)
 753-C( 11  7  2) 754-C( 12  7  2) 755-C( 13  7  2) 756-C( 14  7  2)
 757-C( 15  7  2) 758-C( 16  7  2) 759-C( 17  7  2) 760-C( 18  7  2)
 761-C( 19  7  2) 762-C( 23  7  2) 763-C( 24  7  2) 764-C( 25  7  2)
 765-C( 26  7  2) 766-C( 27  7  2) 767-C( 28  7  2) 768-C(  8  8  2)
 769-C(  9  8  2) 770-C( 10  8  2) 771-C( 11  8  2) 772-C( 12  8  2)
 773-C( 13  8  2) 774-C( 14  8  2) 775-C( 15  8  2) 776-C( 16  8  2)
 777-C( 17  8  2) 778-C( 18  8  2) 779-C( 22  8  2) 780-C( 23  8  2)
 781-C( 24  8  2) 782-C( 25  8  2) 783-C( 26  8  2) 784-C( 27  8  2)
 785-C( 28  8  2) 786-C(  9  9  2) 787-C( 10  9  2) 788-C( 11  9  2)
 789-C( 12  9  2) 790-C( 13  9  2) 791-C( 14  9  2) 792-C( 15  9  2)
 793-C( 16  9  2) 794-C( 17  9  2) 795-C( 21  9  2) 796-C( 22  9  2)
 797-C( 23  9  2) 798-C( 24  9  2) 799-C( 25  9  2) 800-C( 26  9  2)
 801-C( 27  9  2) 802-C( 28  9  2) 803-C( 10 10  2) 804-C( 11 10  2)
 805-C( 12 10  2) 806-C( 13 10  2) 807-C( 14 10  2) 808-C( 15 10  2)
 809-C( 16 10  2) 810-C( 20 10  2) 811-C( 21 10  2) 812-C( 22 10  2)
 813-C( 23 10  2) 814-C( 24 10  2) 815-C( 25 10  2) 816-C( 26 10  2)
 817-C( 27 10  2) 818-C( 28 10  2) 819-C( 11 11  2) 820-C( 12 11  2)
 821-C( 13 11  2) 822-C( 14 11  2) 823-C( 15 11  2) 824-C( 19 11  2)
 825-C( 20 11  2) 826-C( 21 11  2) 827-C( 22 11  2) 828-C( 23 11  2)
 829-C( 24 11  2) 830-C( 25 11  2) 831-C( 26 11  2) 832-C( 27 11  2)
 833-C( 28 11  2) 834-C( 12 12  2) 835-C( 13 12  2) 836-C( 14 12  2)
 837-C( 18 12  2) 838-C( 19 12  2) 839-C( 20 12  2) 840-C( 21 12  2)
 841-C( 22 12  2) 842-C( 23 12  2) 843-C( 24 12  2) 844-C( 25 12  2)
 845-C( 26 12  2) 846-C( 27 12  2) 847-C( 28 12  2) 848-C( 13 13  2)
 849-C( 17 13  2) 850-C( 18 13  2) 851-C( 19 13  2) 852-C( 20 13  2)
 853-C( 21 13  2) 854-C( 22 13  2) 855-C( 23 13  2) 856-C( 24 13  2)
 857-C( 25 13  2) 858-C( 26 13  2) 859-C( 27 13  2) 860-C( 28 13  2)
 861-C( 16 14  2) 862-C( 17 14  2) 863-C( 18 14  2) 864-C( 19 14  2)
 865-C( 20 14  2) 866-C( 21 14  2) 867-C( 22 14  2) 868-C( 23 14  2)
 869-C( 24 14  2) 870-C( 25 14  2) 871-C( 26 14  2) 872-C( 27 14  2)
 873-C( 28 14  2) 874-C( 15 15  2) 875-C( 16 15  2) 876-C( 17 15  2)
 877-C( 18 15  2) 878-C( 19 15  2) 879-C( 20 15  2) 880-C( 21 15  2)
 881-C( 22 15  2) 882-C( 23 15  2) 883-C( 24 15  2) 884-C( 25 15  2)
 885-C( 26 15  2) 886-C( 27 15  2) 887-C( 28 15  2) 888-C( 16 16  2)
 889-C( 17 16  2) 890-C( 18 16  2) 891-C( 19 16  2) 892-C( 20 16  2)
 893-C( 21 16  2) 894-C( 22 16  2) 895-C( 23 16  2) 896-C( 24 16  2)
 897-C( 25 16  2) 898-C( 26 16  2) 899-C( 27 16  2) 900-C( 28 16  2)
 901-C( 17 17  2) 902-C( 18 17  2) 903-C( 19 17  2) 904-C( 20 17  2)
 905-C( 21 17  2) 906-C( 22 17  2) 907-C( 23 17  2) 908-C( 24 17  2)
 909-C( 25 17  2) 910-C( 26 17  2) 911-C( 27 17  2) 912-C( 28 17  2)
 913-C( 18 18  2) 914-C( 19 18  2) 915-C( 20 18  2) 916-C( 21 18  2)
 917-C( 22 18  2) 918-C( 23 18  2) 919-C( 24 18  2) 920-C( 25 18  2)
 921-C( 26 18  2) 922-C( 27 18  2) 923-C( 28 18  2) 924-C( 19 19  2)
 925-C( 20 19  2) 926-C( 21 19  2) 927-C( 22 19  2) 928-C( 23 19  2)
 929-C( 24 19  2) 930-C( 25 19  2) 931-C( 26 19  2) 932-C( 27 19  2)
 933-C( 28 19  2) 934-C( 20 20  2) 935-C( 21 20  2) 936-C( 22 20  2)
 937-C( 23 20  2) 938-C( 24 20  2) 939-C( 25 20  2) 940-C( 26 20  2)
 941-C( 27 20  2) 942-C( 28 20  2) 943-C( 21 21  2) 944-C( 22 21  2)
 945-C( 23 21  2) 946-C( 24 21  2) 947-C( 25 21  2) 948-C( 26 21  2)
 949-C( 27 21  2) 950-C( 28 21  2) 951-C( 22 22  2) 952-C( 23 22  2)
 953-C( 24 22  2) 954-C( 25 22  2) 955-C( 26 22  2) 956-C( 27 22  2)
 957-C( 28 22  2) 958-C( 23 23  2) 959-C( 24 23  2) 960-C( 25 23  2)
 961-C( 26 23  2) 962-C( 27 23  2) 963-C( 28 23  2) 964-C( 24 24  2)
 965-C( 25 24  2) 966-C( 26 24  2) 967-C( 27 24  2) 968-C( 28 24  2)
 969-C( 25 25  2) 970-C( 26 25  2) 971-C( 27 25  2) 972-C( 28 25  2)
 973-C( 26 26  2) 974-C( 27 26  2) 975-C( 28 26  2) 976-C( 27 27  2)
 977-C( 28 27  2) 978-C( 28 28  2) 979-C(  3  3  3) 980-C(  4  3  3)
 981-C(  5  3  3) 982-C(  6  3  3) 983-C(  7  3  3) 984-C(  8  3  3)
 985-C(  9  3  3) 986-C( 10  3  3) 987-C( 11  3  3) 988-C( 12  3  3)
 989-C( 27  3  3) 990-C(  4  4  3) 991-C(  5  4  3) 992-C(  6  4  3)
 993-C(  7  4  3) 994-C(  8  4  3) 995-C(  9  4  3) 996-C( 10  4  3)
 997-C( 11  4  3) 998-C( 12  4  3) 999-C( 13  4  3)1000-C( 14  4  3)
1001-C( 15  4  3)1002-C( 16  4  3)1003-C( 17  4  3)1004-C( 18  4  3)
1005-C( 19  4  3)1006-C( 20  4  3)1007-C( 26  4  3)1008-C( 27  4  3)
1009-C(  5  5  3)1010-C(  6  5  3)1011-C(  7  5  3)1012-C(  8  5  3)
1013-C(  9  5  3)1014-C( 10  5  3)1015-C( 11  5  3)1016-C( 12  5  3)
1017-C( 13  5  3)1018-C( 14  5  3)1019-C( 15  5  3)1020-C( 16  5  3)
1021-C( 17  5  3)1022-C( 18  5  3)1023-C( 19  5  3)1024-C( 25  5  3)
1025-C( 26  5  3)1026-C( 27  5  3)1027-C(  6  6  3)1028-C(  7  6  3)
1029-C(  8  6  3)1030-C(  9  6  3)1031-C( 10  6  3)1032-C( 11  6  3)
1033-C( 12  6  3)1034-C( 13  6  3)1035-C( 14  6  3)1036-C( 15  6  3)
1037-C( 16  6  3)1038-C( 17  6  3)1039-C( 18  6  3)1040-C( 24  6  3)
1041-C( 25  6  3)1042-C( 26  6  3)1043-C( 27  6  3)1044-C(  7  7  3)
1045-C(  8  7  3)1046-C(  9  7  3)1047-C( 10  7  3)1048-C( 11  7  3)
1049-C( 12  7  3)1050-C( 13  7  3)1051-C( 14  7  3)1052-C( 15  7  3)
1053-C( 16  7  3)1054-C( 17  7  3)1055-C( 23  7  3)1056-C( 24  7  3)
1057-C( 25  7  3)1058-C( 26  7  3)1059-C( 27  7  3)1060-C(  8  8  3)
1061-C(  9  8  3)1062-C( 10  8  3)1063-C( 11  8  3)1064-C( 12  8  3)
1065-C( 13  8  3)1066-C( 14  8  3)1067-C( 15  8  3)1068-C( 16  8  3)
1069-C( 22  8  3)1070-C( 23  8  3)1071-C( 24  8  3)1072-C( 25  8  3)
1073-C( 26  8  3)1074-C( 27  8  3)1075-C(  9  9  3)1076-C( 10  9  3)
1077-C( 11  9  3)1078-C( 12  9  3)1079-C( 13  9  3)1080-C( 14  9  3)
1081-C( 15  9  3)1082-C( 21  9  3)1083-C( 22  9  3)1084-C( 23  9  3)
1085-C( 24  9  3)1086-C( 25  9  3)1087-C( 26  9  3)1088-C( 27  9  3)
1089-C( 10 10  3)1090-C( 11 10  3)1091-C( 12 10  3)1092-C( 13 10  3)
1093-C( 14 10  3)1094-C( 20 10  3)1095-C( 21 10  3)1096-C( 22 10  3)
1097-C( 23 10  3)1098-C( 24 10  3)1099-C( 25 10  3)1100-C( 26 10  3)
1101-C( 27 10  3)1102-C( 11 11  3)1103-C( 12 11  3)1104-C( 13 11  3)
1105-C( 19 11  3)1106-C( 20 11  3)1107-C( 21 11  3)1108-C( 22 11  3)
1109-C( 23 11  3)1110-C( 24 11  3)1111-C( 25 11  3)1112-C( 26 11  3)
1113-C( 27 11  3)1114-C( 12 12  3)1115-C( 18 12  3)1116-C( 19 12  3)
1117-C( 20 12  3)1118-C( 21 12  3)1119-C( 22 12  3)1120-C( 23 12  3)
1121-C( 24 12  3)1122-C( 25 12  3)1123-C( 26 12  3)1124-C( 27 12  3)
1125-C( 17 13  3)1126-C( 18 13  3)1127-C( 19 13  3)1128-C( 20 13  3)
1129-C( 21 13  3)1130-C( 22 13  3)1131-C( 23 13  3)1132-C( 24 13  3)
1133-C( 25 13  3)1134-C( 26 13  3)1135-C( 27 13  3)1136-C( 16 14  3)
1137-C( 17 14  3)1138-C( 18 14  3)1139-C( 19 14  3)1140-C( 20 14  3)
1141-C( 21 14  3)1142-C( 22 14  3)1143-C( 23 14  3)1144-C( 24 14  3)
1145-C( 25 14  3)1146-C( 26 14  3)1147-C( 27 14  3)1148-C( 15 15  3)
1149-C( 16 15  3)1150-C( 17 15  3)1151-C( 18 15  3)1152-C( 19 15  3)
1153-C( 20 15  3)1154-C( 21 15  3)1155-C( 22 15  3)1156-C( 23 15  3)
1157-C( 24 15  3)1158-C( 25 15  3)1159-C( 26 15  3)1160-C( 27 15  3)
1161-C( 16 16  3)1162-C( 17 16  3)1163-C( 18 16  3)1164-C( 19 16  3)
1165-C( 20 16  3)1166-C( 21 16  3)1167-C( 22 16  3)1168-C( 23 16  3)
1169-C( 24 16  3)1170-C( 25 16  3)1171-C( 26 16  3)1172-C( 27 16  3)
1173-C( 17 17  3)1174-C( 18 17  3)1175-C( 19 17  3)1176-C( 20 17  3)
1177-C( 21 17  3)1178-C( 22 17  3)1179-C( 23 17  3)1180-C( 24 17  3)
1181-C( 25 17  3)1182-C( 26 17  3)1183-C( 27 17  3)1184-C( 18 18  3)
1185-C( 19 18  3)1186-C( 20 18  3)1187-C( 21 18  3)1188-C( 22 18  3)
1189-C( 23 18  3)1190-C( 24 18  3)1191-C( 25 18  3)1192-C( 26 18  3)
1193-C( 27 18  3)1194-C( 19 19  3)1195-C( 20 19  3)1196-C( 21 19  3)
1197-C( 22 19  3)1198-C( 23 19  3)1199-C( 24 19  3)1200-C( 25 19  3)
1201-C( 26 19  3)1202-C( 27 19  3)1203-C( 20 20  3)1204-C( 21 20  3)
1205-C( 22 20  3)1206-C( 23 20  3)1207-C( 24 20  3)1208-C( 25 20  3)
1209-C( 26 20  3)1210-C( 27 20  3)1211-C( 21 21  3)1212-C( 22 21  3)
1213-C( 23 21  3)1214-C( 24 21  3)1215-C( 25 21  3)1216-C( 26 21  3)
1217-C( 27 21  3)1218-C( 22 22  3)1219-C( 23 22  3)1220-C( 24 22  3)
1221-C( 25 22  3)1222-C( 26 22  3)1223-C( 27 22  3)1224-C( 23 23  3)
1225-C( 24 23  3)1226-C( 25 23  3)1227-C( 26 23  3)1228-C( 27 23  3)
1229-C( 24 24  3)1230-C( 25 24  3)1231-C( 26 24  3)1232-C( 27 24  3)
1233-C( 25 25  3)1234-C( 26 25  3)1235-C( 27 25  3)1236-C( 26 26  3)
1237-C( 27 26  3)1238-C( 27 27  3)1239-C(  4  4  4)1240-C(  5  4  4)
1241-C(  6  4  4)1242-C(  7  4  4)1243-C(  8  4  4)1244-C(  9  4  4)
1245-C( 10  4  4)1246-C( 11  4  4)1247-C( 26  4  4)1248-C(  5  5  4)
1249-C(  6  5  4)1250-C(  7  5  4)1251-C(  8  5  4)1252-C(  9  5  4)
1253-C( 10  5  4)1254-C( 11  5  4)1255-C( 12  5  4)1256-C( 13  5  4)
1257-C( 14  5  4)1258-C( 15  5  4)1259-C( 16  5  4)1260-C( 17  5  4)
1261-C( 25  5  4)1262-C( 26  5  4)1263-C(  6  6  4)1264-C(  7  6  4)
1265-C(  8  6  4)1266-C(  9  6  4)1267-C( 10  6  4)1268-C( 11  6  4)
1269-C( 12  6  4)1270-C( 13  6  4)1271-C( 14  6  4)1272-C( 15  6  4)
1273-C( 16  6  4)1274-C( 24  6  4)1275-C( 25  6  4)1276-C( 26  6  4)
1277-C(  7  7  4)1278-C(  8  7  4)1279-C(  9  7  4)1280-C( 10  7  4)
1281-C( 11  7  4)1282-C( 12  7  4)1283-C( 13  7  4)1284-C( 14  7  4)
1285-C( 15  7  4)1286-C( 23  7  4)1287-C( 24  7  4)1288-C( 25  7  4)
1289-C( 26  7  4)1290-C(  8  8  4)1291-C(  9  8  4)1292-C( 10  8  4)
1293-C( 11  8  4)1294-C( 12  8  4)1295-C( 13  8  4)1296-C( 14  8  4)
1297-C( 22  8  4)1298-C( 23  8  4)1299-C( 24  8  4)1300-C( 25  8  4)
1301-C( 26  8  4)1302-C(  9  9  4)1303-C( 10  9  4)1304-C( 11  9  4)
1305-C( 12  9  4)1306-C( 13  9  4)1307-C( 21  9  4)1308-C( 22  9  4)
1309-C( 23  9  4)1310-C( 24  9  4)1311-C( 25  9  4)1312-C( 26  9  4)
1313-C( 10 10  4)1314-C( 11 10  4)1315-C( 12 10  4)1316-C( 20 10  4)
1317-C( 21 10  4)1318-C( 22 10  4)1319-C( 23 10  4)1320-C( 24 10  4)
1321-C( 25 10  4)1322-C( 26 10  4)1323-C( 11 11  4)1324-C( 19 11  4)
1325-C( 20 11  4)1326-C( 21 11  4)1327-C( 22 11  4)1328-C( 23 11  4)
1329-C( 24 11  4)1330-C( 25 11  4)1331-C( 26 11  4)1332-C( 18 12  4)
1333-C( 19 12  4)1334-C( 20 12  4)1335-C( 21 12  4)1336-C( 22 12  4)
1337-C( 23 12  4)1338-C( 24 12  4)1339-C( 25 12  4)1340-C( 26 12  4)
1341-C( 17 13  4)1342-C( 18 13  4)1343-C( 19 13  4)1344-C( 20 13  4)
1345-C( 21 13  4)1346-C( 22 13  4)1347-C( 23 13  4)1348-C( 24 13  4)
1349-C( 25 13  4)1350-C( 26 13  4)1351-C( 16 14  4)1352-C( 17 14  4)
1353-C( 18 14  4)1354-C( 19 14  4)1355-C( 20 14  4)1356-C( 21 14  4)
1357-C( 22 14  4)1358-C( 23 14  4)1359-C( 24 14  4)1360-C( 25 14  4)
1361-C( 26 14  4)1362-C( 15 15  4)1363-C( 16 15  4)1364-C( 17 15  4)
1365-C( 18 15  4)1366-C( 19 15  4)1367-C( 20 15  4)1368-C( 21 15  4)
1369-C( 22 15  4)1370-C( 23 15  4)1371-C( 24 15  4)1372-C( 25 15  4)
1373-C( 26 15  4)1374-C( 16 16  4)1375-C( 17 16  4)1376-C( 18 16  4)
1377-C( 19 16  4)1378-C( 20 16  4)1379-C( 21 16  4)1380-C( 22 16  4)
1381-C( 23 16  4)1382-C( 24 16  4)1383-C( 25 16  4)1384-C( 26 16  4)
1385-C( 17 17  4)1386-C( 18 17  4)1387-C( 19 17  4)1388-C( 20 17  4)
1389-C( 21 17  4)1390-C( 22 17  4)1391-C( 23 17  4)1392-C( 24 17  4)
1393-C( 25 17  4)1394-C( 26 17  4)1395-C( 18 18  4)1396-C( 19 18  4)
1397-C( 20 18  4)1398-C( 21 18  4)1399-C( 22 18  4)1400-C( 23 18  4)
1401-C( 24 18  4)1402-C( 25 18  4)1403-C( 26 18  4)1404-C( 19 19  4)
1405-C( 20 19  4)1406-C( 21 19  4)1407-C( 22 19  4)1408-C( 23 19  4)
1409-C( 24 19  4)1410-C( 25 19  4)1411-C( 26 19  4)1412-C( 20 20  4)
1413-C( 21 20  4)1414-C( 22 20  4)1415-C( 23 20  4)1416-C( 24 20  4)
1417-C( 25 20  4)1418-C( 26 20  4)1419-C( 21 21  4)1420-C( 22 21  4)
1421-C( 23 21  4)1422-C( 24 21  4)1423-C( 25 21  4)1424-C( 26 21  4)
1425-C( 22 22  4)1426-C( 23 22  4)1427-C( 24 22  4)1428-C( 25 22  4)
1429-C( 26 22  4)1430-C( 23 23  4)1431-C( 24 23  4)1432-C( 25 23  4)
1433-C( 26 23  4)1434-C( 24 24  4)1435-C( 25 24  4)1436-C( 26 24  4)
1437-C( 25 25  4)1438-C( 26 25  4)1439-C( 26 26  4)1440-C(  5  5  5)
1441-C(  6  5  5)1442-C(  7  5  5)1443-C(  8  5  5)1444-C(  9  5  5)
1445-C( 10  5  5)1446-C( 25  5  5)1447-C(  6  6  5)1448-C(  7  6  5)
1449-C(  8  6  5)1450-C(  9  6  5)1451-C( 10  6  5)1452-C( 11  6  5)
1453-C( 12  6  5)1454-C( 13  6  5)1455-C( 14  6  5)1456-C( 24  6  5)
1457-C( 25  6  5)1458-C(  7  7  5)1459-C(  8  7  5)1460-C(  9  7  5)
1461-C( 10  7  5)1462-C( 11  7  5)1463-C( 12  7  5)1464-C( 13  7  5)
1465-C( 23  7  5)1466-C( 24  7  5)1467-C( 25  7  5)1468-C(  8  8  5)
1469-C(  9  8  5)1470-C( 10  8  5)1471-C( 11  8  5)1472-C( 12  8  5)
1473-C( 22  8  5)1474-C( 23  8  5)1475-C( 24  8  5)1476-C( 25  8  5)
1477-C(  9  9  5)1478-C( 10  9  5)1479-C( 11  9  5)1480-C( 21  9  5)
1481-C( 22  9  5)1482-C( 23  9  5)1483-C( 24  9  5)1484-C( 25  9  5)
1485-C( 10 10  5)1486-C( 20 10  5)1487-C( 21 10  5)1488-C( 22 10  5)
1489-C( 23 10  5)1490-C( 24 10  5)1491-C( 25 10  5)1492-C( 19 11  5)
1493-C( 20 11  5)1494-C( 21 11  5)1495-C( 22 11  5)1496-C( 23 11  5)
1497-C( 24 11  5)1498-C( 25 11  5)1499-C( 18 12  5)1500-C( 19 12  5)
1501-C( 20 12  5)1502-C( 21 12  5)1503-C( 22 12  5)1504-C( 23 12  5)
1505-C( 24 12  5)1506-C( 25 12  5)1507-C( 17 13  5)1508-C( 18 13  5)
1509-C( 19 13  5)1510-C( 20 13  5)1511-C( 21 13  5)1512-C( 22 13  5)
1513-C( 23 13  5)1514-C( 24 13  5)1515-C( 25 13  5)1516-C( 16 14  5)
1517-C( 17 14  5)1518-C( 18 14  5)1519-C( 19 14  5)1520-C( 20 14  5)
1521-C( 21 14  5)1522-C( 22 14  5)1523-C( 23 14  5)1524-C( 24 14  5)
1525-C( 25 14  5)1526-C( 15 15  5)1527-C( 16 15  5)1528-C( 17 15  5)
1529-C( 18 15  5)1530-C( 19 15  5)1531-C( 20 15  5)1532-C( 21 15  5)
1533-C( 22 15  5)1534-C( 23 15  5)1535-C( 24 15  5)1536-C( 25 15  5)
1537-C( 16 16  5)1538-C( 17 16  5)1539-C( 18 16  5)1540-C( 19 16  5)
1541-C( 20 16  5)1542-C( 21 16  5)1543-C( 22 16  5)1544-C( 23 16  5)
1545-C( 24 16  5)1546-C( 25 16  5)1547-C( 17 17  5)1548-C( 18 17  5)
1549-C( 19 17  5)1550-C( 20 17  5)1551-C( 21 17  5)1552-C( 22 17  5)
1553-C( 23 17  5)1554-C( 24 17  5)1555-C( 25 17  5)1556-C( 18 18  5)
1557-C( 19 18  5)1558-C( 20 18  5)1559-C( 21 18  5)1560-C( 22 18  5)
1561-C( 23 18  5)1562-C( 24 18  5)1563-C( 25 18  5)1564-C( 19 19  5)
1565-C( 20 19  5)1566-C( 21 19  5)1567-C( 22 19  5)1568-C( 23 19  5)
1569-C( 24 19  5)1570-C( 25 19  5)1571-C( 20 20  5)1572-C( 21 20  5)
1573-C( 22 20  5)1574-C( 23 20  5)1575-C( 24 20  5)1576-C( 25 20  5)
1577-C( 21 21  5)1578-C( 22 21  5)1579-C( 23 21  5)1580-C( 24 21  5)
1581-C( 25 21  5)1582-C( 22 22  5)1583-C( 23 22  5)1584-C( 24 22  5)
1585-C( 25 22  5)1586-C( 23 23  5)1587-C( 24 23  5)1588-C( 25 23  5)
1589-C( 24 24  5)1590-C( 25 24  5)1591-C( 25 25  5)1592-C(  6  6  6)
1593-C(  7  6  6)1594-C(  8  6  6)1595-C(  9  6  6)1596-C( 24  6  6)
1597-C(  7  7  6)1598-C(  8  7  6)1599-C(  9  7  6)1600-C( 10  7  6)
1601-C( 11  7  6)1602-C( 23  7  6)1603-C( 24  7  6)1604-C(  8  8  6)
1605-C(  9  8  6)1606-C( 10  8  6)1607-C( 22  8  6)1608-C( 23  8  6)
1609-C( 24  8  6)1610-C(  9  9  6)1611-C( 21  9  6)1612-C( 22  9  6)
1613-C( 23  9  6)1614-C( 24  9  6)1615-C( 20 10  6)1616-C( 21 10  6)
1617-C( 22 10  6)1618-C( 23 10  6)1619-C( 24 10  6)1620-C( 19 11  6)
1621-C( 20 11  6)1622-C( 21 11  6)1623-C( 22 11  6)1624-C( 23 11  6)
1625-C( 24 11  6)1626-C( 18 12  6)1627-C( 19 12  6)1628-C( 20 12  6)
1629-C( 21 12  6)1630-C( 22 12  6)1631-C( 23 12  6)1632-C( 24 12  6)
1633-C( 17 13  6)1634-C( 18 13  6)1635-C( 19 13  6)1636-C( 20 13  6)
1637-C( 21 13  6)1638-C( 22 13  6)1639-C( 23 13  6)1640-C( 24 13  6)
1641-C( 16 14  6)1642-C( 17 14  6)1643-C( 18 14  6)1644-C( 19 14  6)
1645-C( 20 14  6)1646-C( 21 14  6)1647-C( 22 14  6)1648-C( 23 14  6)
1649-C( 24 14  6)1650-C( 15 15  6)1651-C( 16 15  6)1652-C( 17 15  6)
1653-C( 18 15  6)1654-C( 19 15  6)1655-C( 20 15  6)1656-C( 21 15  6)
1657-C( 22 15  6)1658-C( 23 15  6)1659-C( 24 15  6)1660-C( 16 16  6)
1661-C( 17 16  6)1662-C( 18 16  6)1663-C( 19 16  6)1664-C( 20 16  6)
1665-C( 21 16  6)1666-C( 22 16  6)1667-C( 23 16  6)1668-C( 24 16  6)
1669-C( 17 17  6)1670-C( 18 17  6)1671-C( 19 17  6)1672-C( 20 17  6)
1673-C( 21 17  6)1674-C( 22 17  6)1675-C( 23 17  6)1676-C( 24 17  6)
1677-C( 18 18  6)1678-C( 19 18  6)1679-C( 20 18  6)1680-C( 21 18  6)
1681-C( 22 18  6)1682-C( 23 18  6)1683-C( 24 18  6)1684-C( 19 19  6)
1685-C( 20 19  6)1686-C( 21 19  6)1687-C( 22 19  6)1688-C( 23 19  6)
1689-C( 24 19  6)1690-C( 20 20  6)1691-C( 21 20  6)1692-C( 22 20  6)
1693-C( 23 20  6)1694-C( 24 20  6)1695-C( 21 21  6)1696-C( 22 21  6)
1697-C( 23 21  6)1698-C( 24 21  6)1699-C( 22 22  6)1700-C( 23 22  6)
1701-C( 24 22  6)1702-C( 23 23  6)1703-C( 24 23  6)1704-C( 24 24  6)
1705-C(  7  7  7)1706-C(  8  7  7)1707-C( 23  7  7)1708-C(  8  8  7)
1709-C( 22  8  7)1710-C( 23  8  7)1711-C( 21  9  7)1712-C( 22  9  7)
1713-C( 23  9  7)1714-C( 20 10  7)1715-C( 21 10  7)1716-C( 22 10  7)
1717-C( 23 10  7)1718-C( 19 11  7)1719-C( 20 11  7)1720-C( 21 11  7)
1721-C( 22 11  7)1722-C( 23 11  7)1723-C( 18 12  7)1724-C( 19 12  7)
1725-C( 20 12  7)1726-C( 21 12  7)1727-C( 22 12  7)1728-C( 23 12  7)
1729-C( 17 13  7)1730-C( 18 13  7)1731-C( 19 13  7)1732-C( 20 13  7)
1733-C( 21 13  7)1734-C( 22 13  7)1735-C( 23 13  7)1736-C( 16 14  7)
1737-C( 17 14  7)1738-C( 18 14  7)1739-C( 19 14  7)1740-C( 20 14  7)
1741-C( 21 14  7)1742-C( 22 14  7)1743-C( 23 14  7)1744-C( 15 15  7)
1745-C( 16 15  7)1746-C( 17 15  7)1747-C( 18 15  7)1748-C( 19 15  7)
1749-C( 20 15  7)1750-C( 21 15  7)1751-C( 22 15  7)1752-C( 23 15  7)
1753-C( 16 16  7)1754-C( 17 16  7)1755-C( 18 16  7)1756-C( 19 16  7)
1757-C( 20 16  7)1758-C( 21 16  7)1759-C( 22 16  7)1760-C( 23 16  7)
1761-C( 17 17  7)1762-C( 18 17  7)1763-C( 19 17  7)1764-C( 20 17  7)
1765-C( 21 17  7)1766-C( 22 17  7)1767-C( 23 17  7)1768-C( 18 18  7)
1769-C( 19 18  7)1770-C( 20 18  7)1771-C( 21 18  7)1772-C( 22 18  7)
1773-C( 23 18  7)1774-C( 19 19  7)1775-C( 20 19  7)1776-C( 21 19  7)
1777-C( 22 19  7)1778-C( 23 19  7)1779-C( 20 20  7)1780-C( 21 20  7)
1781-C( 22 20  7)1782-C( 23 20  7)1783-C( 21 21  7)1784-C( 22 21  7)
1785-C( 23 21  7)1786-C( 22 22  7)1787-C( 23 22  7)1788-C( 23 23  7)
1789-C( 22  8  8)1790-C( 21  9  8)1791-C( 22  9  8)1792-C( 20 10  8)
1793-C( 21 10  8)1794-C( 22 10  8)1795-C( 19 11  8)1796-C( 20 11  8)
1797-C( 21 11  8)1798-C( 22 11  8)1799-C( 18 12  8)1800-C( 19 12  8)
1801-C( 20 12  8)1802-C( 21 12  8)1803-C( 22 12  8)1804-C( 17 13  8)
1805-C( 18 13  8)1806-C( 19 13  8)1807-C( 20 13  8)1808-C( 21 13  8)
1809-C( 22 13  8)1810-C( 16 14  8)1811-C( 17 14  8)1812-C( 18 14  8)
1813-C( 19 14  8)1814-C( 20 14  8)1815-C( 21 14  8)1816-C( 22 14  8)
1817-C( 15 15  8)1818-C( 16 15  8)1819-C( 17 15  8)1820-C( 18 15  8)
1821-C( 19 15  8)1822-C( 20 15  8)1823-C( 21 15  8)1824-C( 22 15  8)
1825-C( 16 16  8)1826-C( 17 16  8)1827-C( 18 16  8)1828-C( 19 16  8)
1829-C( 20 16  8)1830-C( 21 16  8)1831-C( 22 16  8)1832-C( 17 17  8)
1833-C( 18 17  8)1834-C( 19 17  8)1835-C( 20 17  8)1836-C( 21 17  8)
1837-C( 22 17  8)1838-C( 18 18  8)1839-C( 19 18  8)1840-C( 20 18  8)
1841-C( 21 18  8)1842-C( 22 18  8)1843-C( 19 19  8)1844-C( 20 19  8)
1845-C( 21 19  8)1846-C( 22 19  8)1847-C( 20 20  8)1848-C( 21 20  8)
1849-C( 22 20  8)1850-C( 21 21  8)1851-C( 22 21  8)1852-C( 22 22  8)
1853-C( 21  9  9)1854-C( 20 10  9)1855-C( 21 10  9)1856-C( 19 11  9)
1857-C( 20 11  9)1858-C( 21 11  9)1859-C( 18 12  9)1860-C( 19 12  9)
1861-C( 20 12  9)1862-C( 21 12  9)1863-C( 17 13  9)1864-C( 18 13  9)
1865-C( 19 13  9)1866-C( 20 13  9)1867-C( 21 13  9)1868-C( 16 14  9)
1869-C( 17 14  9)1870-C( 18 14  9)1871-C( 19 14  9)1872-C( 20 14  9)
1873-C( 21 14  9)1874-C( 15 15  9)1875-C( 16 15  9)1876-C( 17 15  9)
1877-C( 18 15  9)1878-C( 19 15  9)1879-C( 20 15  9)1880-C( 21 15  9)
1881-C( 16 16  9)1882-C( 17 16  9)1883-C( 18 16  9)1884-C( 19 16  9)
1885-C( 20 16  9)1886-C( 21 16  9)1887-C( 17 17  9)1888-C( 18 17  9)
1889-C( 19 17  9)1890-C( 20 17  9)1891-C( 21 17  9)1892-C( 18 18  9)
1893-C( 19 18  9)1894-C( 20 18  9)1895-C( 21 18  9)1896-C( 19 19  9)
1897-C( 20 19  9)1898-C( 21 19  9)1899-C( 20 20  9)1900-C( 21 20  9)
1901-C( 21 21  9)1902-C( 20 10 10)1903-C( 19 11 10)1904-C( 20 11 10)
1905-C( 18 12 10)1906-C( 19 12 10)1907-C( 20 12 10)1908-C( 17 13 10)
1909-C( 18 13 10)1910-C( 19 13 10)1911-C( 20 13 10)1912-C( 16 14 10)
1913-C( 17 14 10)1914-C( 18 14 10)1915-C( 19 14 10)1916-C( 20 14 10)
1917-C( 15 15 10)1918-C( 16 15 10)1919-C( 17 15 10)1920-C( 18 15 10)
1921-C( 19 15 10)1922-C( 20 15 10)1923-C( 16 16 10)1924-C( 17 16 10)
1925-C( 18 16 10)1926-C( 19 16 10)1927-C( 20 16 10)1928-C( 17 17 10)
1929-C( 18 17 10)1930-C( 19 17 10)1931-C( 20 17 10)1932-C( 18 18 10)
1933-C( 19 18 10)1934-C( 20 18 10)1935-C( 19 19 10)1936-C( 20 19 10)
1937-C( 20 20 10)1938-C( 19 11 11)1939-C( 18 12 11)1940-C( 19 12 11)
1941-C( 17 13 11)1942-C( 18 13 11)1943-C( 19 13 11)1944-C( 16 14 11)
1945-C( 17 14 11)1946-C( 18 14 11)1947-C( 19 14 11)1948-C( 15 15 11)
1949-C( 16 15 11)1950-C( 17 15 11)1951-C( 18 15 11)1952-C( 19 15 11)
1953-C( 16 16 11)1954-C( 17 16 11)1955-C( 18 16 11)1956-C( 19 16 11)
1957-C( 17 17 11)1958-C( 18 17 11)1959-C( 19 17 11)1960-C( 18 18 11)
1961-C( 19 18 11)1962-C( 19 19 11)1963-C( 18 12 12)1964-C( 17 13 12)
1965-C( 18 13 12)1966-C( 16 14 12)1967-C( 17 14 12)1968-C( 18 14 12)
1969-C( 15 15 12)1970-C( 16 15 12)1971-C( 17 15 12)1972-C( 18 15 12)
1973-C( 16 16 12)1974-C( 17 16 12)1975-C( 18 16 12)1976-C( 17 17 12)
1977-C( 18 17 12)1978-C( 18 18 12)1979-C( 17 13 13)1980-C( 16 14 13)
1981-C( 17 14 13)1982-C( 15 15 13)1983-C( 16 15 13)1984-C( 17 15 13)
1985-C( 16 16 13)1986-C( 17 16 13)1987-C( 17 17 13)1988-C( 16 14 14)
1989-C( 15 15 14)1990-C( 16 15 14)1991-C( 16 16 14)1992-R( 15 15 15)

 DIRECT LATTICE VECTORS COMPON. (A.U.)     RECIP. LATTICE VECTORS COMPON. (A.U.) 
        X            Y            Z              X            Y            Z
   -3.2704097    3.2704097   10.9600682     -0.0000000    0.9606113    0.2866399
    3.2704097   -3.2704097   10.9600682      0.9606113   -0.0000000    0.2866399
    3.2704097    3.2704097  -10.9600682      0.9606113    0.9606113   -0.0000000

 DISK SPACE FOR EIGENVECTORS (FTN 10)    30821120 REALS

 SYMMETRY ADAPTION OF THE BLOCH FUNCTIONS ENABLED
 TTTTTTTTTTTTTTTTTTTTTTTTTTTTTT gordsh1     TELAPSE        3.74 TCPU        2.25

 MATRIX SIZE: P(G)   95668, F(G)   48438, P(G) IRR    9519, F(G) IRR    9519
 MAX G-VECTOR INDEX FOR 1- AND 2-ELECTRON INTEGRALS 159

 TTTTTTTTTTTTTTTTTTTTTTTTTTTTTT INPUT       TELAPSE        3.74 TCPU        2.26

 NEIGHBORS OF THE NON-EQUIVALENT ATOMS

 N = NUMBER OF NEIGHBORS AT DISTANCE R
    ATOM  N     R/ANG      R/AU   NEIGHBORS (ATOM LABELS AND CELL INDICES)
   1 TA   2     2.6153     4.9422    4 AS   0 1 0    4 AS   0 0-1
   1 TA   4     2.6215     4.9538    3 AS   0 0 0    3 AS   1 0 1    3 AS   0 1 1
                                     3 AS   1 1 2
   1 TA   4     3.3771     6.3817    2 TA   0 0 0    2 TA   0-1-1    2 TA   1 0 0
                                     2 TA   0 0-1
   1 TA   4     3.4613     6.5408    1 TA  -1 0-1    1 TA   1 0 1    1 TA   0-1-1
                                     1 TA   0 1 1
   1 TA   2     4.2111     7.9577    4 AS  -1 0-1    4 AS   0 0 0
   1 TA   4     4.3382     8.1981    4 AS  -1 1-1    4 AS  -1 0-2    4 AS   1 1 1
                                     4 AS   1 0 0

   3 AS   2     2.6153     4.9422    2 TA   0-1-1    2 TA  -1-1-2
   3 AS   4     2.6215     4.9538    1 TA   0 0 0    1 TA  -1 0-1    1 TA   0-1-1
                                     1 TA  -1-1-2
   3 AS   4     3.3771     6.3817    4 AS  -1 0-1    4 AS  -1-1-2    4 AS   0 0-1
                                     4 AS  -1 0-2
   3 AS   4     3.4613     6.5408    3 AS  -1 0-1    3 AS   1 0 1    3 AS   0-1-1
                                     3 AS   0 1 1
   3 AS   2     4.2111     7.9577    2 TA   0 0-1    2 TA   0-1-2
   3 AS   4     4.3382     8.1981    2 TA   0 0 0    2 TA  -1 0-1    2 TA   0-2-2
                                     2 TA  -1-2-3


 SYMMETRY ALLOWED INTERNAL DEGREE(S) OF FREEDOM:   1
 TTTTTTTTTTTTTTTTTTTTTTTTTTTTTT SYMM        TELAPSE        3.84 TCPU        2.35
 TTTTTTTTTTTTTTTTTTTTTTTTTTTTTT INT_SCREEN  TELAPSE        3.85 TCPU        2.36

 ************************************************************************
 ************************************************************************
 EOS OPTION, W.F. PERGER, B. CIVALLERI, R. DOVESI, C.M. ZICOVICH, SEPTEMBER 2010
             A. ERBA 2013 
 CONVERGENCE CRITERION FOR ENERGY, TOLDEE =   1.0000E-08
 CONVERGENCE CRITERION FOR RMS GRADIENT, TOLDEG =   3.0000E-04
 CONVERGENCE CRITERION FOR RMS DISPLACEMENT, TOLDEX =  6.2000E-04
 NUMBER OF POINTS (TOTAL) DETERMINING E-V CURVE=    13
 RANGE OF VOLUMES, IN %:     87.0000    102.0000
 ************************************************************************
 ************************************************************************
 TTTTTTTTTTTTTTTTTTTTTTTTTTTTTT gordsh1     TELAPSE        3.85 TCPU        2.36

 MATRIX SIZE: P(G)   95668, F(G)   48438, P(G) IRR    9519, F(G) IRR    9519
 MAX G-VECTOR INDEX FOR 1- AND 2-ELECTRON INTEGRALS 159

 TTTTTTTTTTTTTTTTTTTTTTTTTTTTTT INPUT       TELAPSE        3.85 TCPU        2.36

 NEIGHBORS OF THE NON-EQUIVALENT ATOMS

 N = NUMBER OF NEIGHBORS AT DISTANCE R
    ATOM  N     R/ANG      R/AU   NEIGHBORS (ATOM LABELS AND CELL INDICES)
   1 TA   2     2.6153     4.9422    4 AS   0 1 0    4 AS   0 0-1
   1 TA   4     2.6215     4.9538    3 AS   0 0 0    3 AS   1 0 1    3 AS   0 1 1
                                     3 AS   1 1 2
   1 TA   4     3.3771     6.3817    2 TA   0 0 0    2 TA   0-1-1    2 TA   1 0 0
                                     2 TA   0 0-1
   1 TA   4     3.4613     6.5408    1 TA  -1 0-1    1 TA   1 0 1    1 TA   0-1-1
                                     1 TA   0 1 1
   1 TA   2     4.2111     7.9577    4 AS  -1 0-1    4 AS   0 0 0
   1 TA   4     4.3382     8.1981    4 AS  -1 1-1    4 AS  -1 0-2    4 AS   1 1 1
                                     4 AS   1 0 0

   3 AS   2     2.6153     4.9422    2 TA   0-1-1    2 TA  -1-1-2
   3 AS   4     2.6215     4.9538    1 TA   0 0 0    1 TA  -1 0-1    1 TA   0-1-1
                                     1 TA  -1-1-2
   3 AS   4     3.3771     6.3817    4 AS  -1 0-1    4 AS  -1-1-2    4 AS   0 0-1
                                     4 AS  -1 0-2
   3 AS   4     3.4613     6.5408    3 AS  -1 0-1    3 AS   1 0 1    3 AS   0-1-1
                                     3 AS   0 1 1
   3 AS   2     4.2111     7.9577    2 TA   0 0-1    2 TA   0-1-2
   3 AS   4     4.3382     8.1981    2 TA   0 0 0    2 TA  -1 0-1    2 TA   0-2-2
                                     2 TA  -1-2-3


 SYMMETRY ALLOWED ELASTIC DISTORTION 1
  0.5773503  0.0000000  0.0000000
  0.0000000  0.5773503  0.0000000
  0.0000000  0.0000000  0.5773503

 SYMMETRY ALLOWED ELASTIC DISTORTION 2
  0.4082483  0.0000000  0.0000000
  0.0000000  0.4082483  0.0000000
  0.0000000  0.0000000 -0.8164966

 SYMMETRY ALLOWED INTERNAL DEGREE(S) OF FREEDOM:   1
 TTTTTTTTTTTTTTTTTTTTTTTTTTTTTT SYMM        TELAPSE        3.92 TCPU        2.42
 TTTTTTTTTTTTTTTTTTTTTTTTTTTTTT INT_SCREEN  TELAPSE        3.92 TCPU        2.43

 DFT PARAMETERS

     ATOM       ELECTRONS   NET CHARGE   R(ANGSTROM)
   1 273  TA     10.0000      3.0000     0.72000000
   3 233  AS      8.0000     -3.0000     1.21000000

 SIZE OF GRID=      16494
 TTTTTTTTTTTTTTTTTTTTTTTTTTTTTT MAKE_GRID2  TELAPSE        4.10 TCPU        2.61
 BECKE WEIGHT FUNCTION
 RADSAFE =     2.00
 TOLERANCES - DENSITY:10**- 6; POTENTIAL:10**- 9; GRID WGT:10**-14

 RADIAL INTEGRATION  - INTERVALS (POINTS,UPPER LIMIT):            1( 75,  4.0*R)

 ANGULAR INTEGRATION - INTERVALS (ACCURACY LEVEL [N. POINTS] UPPER LIMIT):
  1(  4[  86]   0.2)  2(  8[ 194]   0.5)  3( 12[ 350]   0.9)  4( 16[ 974]   3.5)
  5( 12[ 350]9999.0)
 TTTTTTTTTTTTTTTTTTTTTTTTTTTTTT INT_CALC    TELAPSE        4.12 TCPU        2.63

 *******************************************************************************
 Tetragonal Phase                                                                
 CRYSTAL - SCF - TYPE OF CALCULATION :  RESTRICTED CLOSED SHELL
 *******************************************************************************

 CAPPA:IS1 30;IS2 30;IS3 30; K PTS MONK NET1992; SYMMOPS:K SPACE  16;G SPACE   8

 TTTTTTTTTTTTTTTTTTTTTTTTTTTTTT SDIK        TELAPSE        4.15 TCPU        2.66

 AAAAAAAAAAAAAAAAAAAAAAAAAAAAAAAAAAAAAAAAAAAAAAAAAAAAAAAAAAAAAAAAAAAAAAAAAAAAAAA
         ATOMIC WAVEFUNCTION(S)


 NUCLEAR CHARGE 13.0  SYMMETRY SPECIES            S    P    D
 N. ELECTRONS   10.0  NUMBER OF PRIMITIVE GTOS    9    8    5
                      NUMBER OF CONTRACTED GTOS   5    5    3
                      NUMBER OF CLOSED SHELLS     1    1    0
                      OPEN SHELL OCCUPATION       0    0    2

  ZNUC  SCFIT    TOTAL HF ENERGY   KINETIC ENERGY   VIRIAL THEOREM             ACCURACY
  13.0    36    -5.515498353E+01  1.836876342E+01 -4.002650873E+00  4.3E-06

 NUCLEAR CHARGE  5.0  SYMMETRY SPECIES            S    P
 N. ELECTRONS    8.0  NUMBER OF PRIMITIVE GTOS    5    4
                      NUMBER OF CONTRACTED GTOS   3    2
                      NUMBER OF CLOSED SHELLS     1    1
                      OPEN SHELL OCCUPATION       0    0

  ZNUC  SCFIT    TOTAL HF ENERGY   KINETIC ENERGY   VIRIAL THEOREM             ACCURACY
   5.0     8    -4.933952010E+00  2.884847569E+00 -2.710299034E+00  2.7E-06

 AAAAAAAAAAAAAAAAAAAAAAAAAAAAAAAAAAAAAAAAAAAAAAAAAAAAAAAAAAAAAAAAAAAAAAAAAAAAAAA

 CHARGE NORMALIZATION FACTOR   1.00000000
 TOTAL ATOMIC CHARGES:
  10.0000000  10.0000000   8.0000000   8.0000000
 TTTTTTTTTTTTTTTTTTTTTTTTTTTTTT MOQGAD      TELAPSE        4.18 TCPU        2.68
 TTTTTTTTTTTTTTTTTTTTTTTTTTTTTT SHELLXN     TELAPSE        4.76 TCPU        3.26
 TTTTTTTTTTTTTTTTTTTTTTTTTTTTTT MONMO3      TELAPSE        5.33 TCPU        3.83
 NUMERICALLY INTEGRATED DENSITY     36.0001250711
 TTTTTTTTTTTTTTTTTTTTTTTTTTTTTT NUMDFT      TELAPSE        5.43 TCPU        3.92
 CYC   0 ETOT(AU) -1.283632195543E+02 DETOT -1.28E+02 tst  0.00E+00 PX  1.00E+00
 TTTTTTTTTTTTTTTTTTTTTTTTTTTTTT DIIS        TELAPSE        5.44 TCPU        3.94
 TTTTTTTTTTTTTTTTTTTTTTTTTTTTTT FDIK        TELAPSE        5.58 TCPU        4.08
 POSSIBLY CONDUCTING STATE - EFERMI(AU) -1.9657870E-01 (RES. CHARGE  7.90E-11;IT. 12)
 TTTTTTTTTTTTTTTTTTTTTTTTTTTTTT PDIG        TELAPSE        5.84 TCPU        4.33
 CHARGE NORMALIZATION FACTOR   1.00000000
 TOTAL ATOMIC CHARGES:
  13.9799473  13.9799473   4.0200527   4.0200527
 TTTTTTTTTTTTTTTTTTTTTTTTTTTTTT MOQGAD      TELAPSE        5.84 TCPU        4.33
 TTTTTTTTTTTTTTTTTTTTTTTTTTTTTT SHELLXN     TELAPSE        6.46 TCPU        4.95
 TTTTTTTTTTTTTTTTTTTTTTTTTTTTTT MONMO3      TELAPSE        7.03 TCPU        5.51
 NUMERICALLY INTEGRATED DENSITY     36.0005408037
 TTTTTTTTTTTTTTTTTTTTTTTTTTTTTT NUMDFT      TELAPSE        7.13 TCPU        5.61
 CYC   1 ETOT(AU) -1.273569825493E+02 DETOT  1.01E+00 tst  0.00E+00 PX  1.00E+00
 TTTTTTTTTTTTTTTTTTTTTTTTTTTTTT DIIS        TELAPSE        7.14 TCPU        5.63
 DIIS TEST: 0.40160E+00 AT SCF   CYCLE   1 - MIX   70 %
 TTTTTTTTTTTTTTTTTTTTTTTTTTTTTT FDIK        TELAPSE        7.25 TCPU        5.73
 POSSIBLY CONDUCTING STATE - EFERMI(AU) -1.7687754E-01 (RES. CHARGE  3.41E-10;IT.  8)
 TTTTTTTTTTTTTTTTTTTTTTTTTTTTTT PDIG        TELAPSE        7.51 TCPU        5.98
 CHARGE NORMALIZATION FACTOR   1.00000000
 TOTAL ATOMIC CHARGES:
  13.4710261  13.4710261   4.5289739   4.5289739
 TTTTTTTTTTTTTTTTTTTTTTTTTTTTTT MOQGAD      TELAPSE        7.51 TCPU        5.98
 TTTTTTTTTTTTTTTTTTTTTTTTTTTTTT SHELLXN     TELAPSE        8.13 TCPU        6.60
 TTTTTTTTTTTTTTTTTTTTTTTTTTTTTT MONMO3      TELAPSE        8.69 TCPU        7.16
 NUMERICALLY INTEGRATED DENSITY     36.0005434827
 TTTTTTTTTTTTTTTTTTTTTTTTTTTTTT NUMDFT      TELAPSE        8.79 TCPU        7.26
 CYC   2 ETOT(AU) -1.274310710556E+02 DETOT -7.41E-02 tst  2.30E-03 PX  8.04E-02
 TTTTTTTTTTTTTTTTTTTTTTTTTTTTTT DIIS        TELAPSE        8.81 TCPU        7.27
 DIIS TEST: 0.13532E-01 AT SCF   CYCLE   2 - DIIS ACTIVE - HISTORY:     2 CYCLES
 TTTTTTTTTTTTTTTTTTTTTTTTTTTTTT FDIK        TELAPSE        8.92 TCPU        7.38
 POSSIBLY CONDUCTING STATE - EFERMI(AU) -1.5461389E-01 (RES. CHARGE  2.50E-11;IT. 10)
 TTTTTTTTTTTTTTTTTTTTTTTTTTTTTT PDIG        TELAPSE        9.17 TCPU        7.63
 CHARGE NORMALIZATION FACTOR   1.00000000
 TOTAL ATOMIC CHARGES:
  13.2149251  13.2149251   4.7850749   4.7850749
 TTTTTTTTTTTTTTTTTTTTTTTTTTTTTT MOQGAD      TELAPSE        9.18 TCPU        7.63
 TTTTTTTTTTTTTTTTTTTTTTTTTTTTTT SHELLXN     TELAPSE        9.79 TCPU        8.25
 TTTTTTTTTTTTTTTTTTTTTTTTTTTTTT MONMO3      TELAPSE       10.36 TCPU        8.81
 NUMERICALLY INTEGRATED DENSITY     36.0005070853
 TTTTTTTTTTTTTTTTTTTTTTTTTTTTTT NUMDFT      TELAPSE       10.46 TCPU        8.91
 CYC   3 ETOT(AU) -1.274361529858E+02 DETOT -5.08E-03 tst  9.65E-04 PX  1.29E-01
 TTTTTTTTTTTTTTTTTTTTTTTTTTTTTT DIIS        TELAPSE       10.47 TCPU        8.93
 DIIS TEST: 0.26728E-02 AT SCF   CYCLE   3 - DIIS ACTIVE - HISTORY:     3 CYCLES
 TTTTTTTTTTTTTTTTTTTTTTTTTTTTTT FDIK        TELAPSE       10.59 TCPU        9.04
 POSSIBLY CONDUCTING STATE - EFERMI(AU) -1.5024147E-01 (RES. CHARGE  1.08E-10;IT. 12)
 TTTTTTTTTTTTTTTTTTTTTTTTTTTTTT PDIG        TELAPSE       10.85 TCPU        9.29
 CHARGE NORMALIZATION FACTOR   1.00000000
 TOTAL ATOMIC CHARGES:
  13.2753577  13.2753577   4.7246423   4.7246423
 TTTTTTTTTTTTTTTTTTTTTTTTTTTTTT MOQGAD      TELAPSE       10.85 TCPU        9.29
 TTTTTTTTTTTTTTTTTTTTTTTTTTTTTT SHELLXN     TELAPSE       11.47 TCPU        9.90
 TTTTTTTTTTTTTTTTTTTTTTTTTTTTTT MONMO3      TELAPSE       12.03 TCPU       10.47
 NUMERICALLY INTEGRATED DENSITY     36.0005175195
 TTTTTTTTTTTTTTTTTTTTTTTTTTTTTT NUMDFT      TELAPSE       12.13 TCPU       10.57
 CYC   4 ETOT(AU) -1.274370248938E+02 DETOT -8.72E-04 tst  9.06E-05 PX  3.47E-02
 TTTTTTTTTTTTTTTTTTTTTTTTTTTTTT DIIS        TELAPSE       12.15 TCPU       10.58
 DIIS TEST: 0.31353E-04 AT SCF   CYCLE   4 - DIIS ACTIVE - HISTORY:     4 CYCLES
 TTTTTTTTTTTTTTTTTTTTTTTTTTTTTT FDIK        TELAPSE       12.26 TCPU       10.69
 POSSIBLY CONDUCTING STATE - EFERMI(AU) -1.5107383E-01 (RES. CHARGE  3.62E-10;IT. 10)
 TTTTTTTTTTTTTTTTTTTTTTTTTTTTTT PDIG        TELAPSE       12.51 TCPU       10.94
 CHARGE NORMALIZATION FACTOR   1.00000000
 TOTAL ATOMIC CHARGES:
  13.2792617  13.2792617   4.7207383   4.7207383
 TTTTTTTTTTTTTTTTTTTTTTTTTTTTTT MOQGAD      TELAPSE       12.52 TCPU       10.94
 TTTTTTTTTTTTTTTTTTTTTTTTTTTTTT SHELLXN     TELAPSE       13.13 TCPU       11.55
 TTTTTTTTTTTTTTTTTTTTTTTTTTTTTT MONMO3      TELAPSE       13.69 TCPU       12.11
 NUMERICALLY INTEGRATED DENSITY     36.0005169178
 TTTTTTTTTTTTTTTTTTTTTTTTTTTTTT NUMDFT      TELAPSE       13.80 TCPU       12.21
 CYC   5 ETOT(AU) -1.274370308143E+02 DETOT -5.92E-06 tst  2.15E-07 PX  1.62E-03
 TTTTTTTTTTTTTTTTTTTTTTTTTTTTTT DIIS        TELAPSE       13.81 TCPU       12.22
 DIIS TEST: 0.70948E-06 AT SCF   CYCLE   5 - DIIS ACTIVE - HISTORY:     5 CYCLES
 TTTTTTTTTTTTTTTTTTTTTTTTTTTTTT FDIK        TELAPSE       13.92 TCPU       12.33
 POSSIBLY CONDUCTING STATE - EFERMI(AU) -1.5107925E-01 (RES. CHARGE  1.78E-14;IT. 10)
 TTTTTTTTTTTTTTTTTTTTTTTTTTTTTT PDIG        TELAPSE       14.17 TCPU       12.58
 CHARGE NORMALIZATION FACTOR   1.00000000
 TOTAL ATOMIC CHARGES:
  13.2793838  13.2793838   4.7206162   4.7206162
 TTTTTTTTTTTTTTTTTTTTTTTTTTTTTT MOQGAD      TELAPSE       14.17 TCPU       12.58
 TTTTTTTTTTTTTTTTTTTTTTTTTTTTTT SHELLXN     TELAPSE       14.79 TCPU       13.20
 TTTTTTTTTTTTTTTTTTTTTTTTTTTTTT MONMO3      TELAPSE       15.35 TCPU       13.75
 NUMERICALLY INTEGRATED DENSITY     36.0005170087
 TTTTTTTTTTTTTTTTTTTTTTTTTTTTTT NUMDFT      TELAPSE       15.46 TCPU       13.86
 CYC   6 ETOT(AU) -1.274370309972E+02 DETOT -1.83E-07 tst  8.48E-09 PX  2.10E-04
 TTTTTTTTTTTTTTTTTTTTTTTTTTTTTT DIIS        TELAPSE       15.47 TCPU       13.87
 DIIS TEST: 0.56976E-07 AT SCF   CYCLE   6 - DIIS ACTIVE - HISTORY:     6 CYCLES
 TTTTTTTTTTTTTTTTTTTTTTTTTTTTTT FDIK        TELAPSE       15.58 TCPU       13.97
 POSSIBLY CONDUCTING STATE - EFERMI(AU) -1.5106013E-01 (RES. CHARGE  1.06E-11;IT. 12)
 TTTTTTTTTTTTTTTTTTTTTTTTTTTTTT PDIG        TELAPSE       15.83 TCPU       14.23
 CHARGE NORMALIZATION FACTOR   1.00000000
 TOTAL ATOMIC CHARGES:
  13.2793808  13.2793808   4.7206192   4.7206192
 TTTTTTTTTTTTTTTTTTTTTTTTTTTTTT MOQGAD      TELAPSE       15.84 TCPU       14.23
 TTTTTTTTTTTTTTTTTTTTTTTTTTTTTT SHELLXN     TELAPSE       16.46 TCPU       14.84
 TTTTTTTTTTTTTTTTTTTTTTTTTTTTTT MONMO3      TELAPSE       17.02 TCPU       15.40
 NUMERICALLY INTEGRATED DENSITY     36.0005170294
 TTTTTTTTTTTTTTTTTTTTTTTTTTTTTT NUMDFT      TELAPSE       17.12 TCPU       15.51
 CYC   7 ETOT(AU) -1.274370310170E+02 DETOT -1.98E-08 tst  5.80E-10 PX  4.66E-05
 TTTTTTTTTTTTTTTTTTTTTTTTTTTTTT DIIS        TELAPSE       17.13 TCPU       15.52
 DIIS TEST: 0.12124E-08 AT SCF   CYCLE   7 - DIIS ACTIVE - HISTORY:     7 CYCLES
 TTTTTTTTTTTTTTTTTTTTTTTTTTTTTT FDIK        TELAPSE       17.26 TCPU       15.64
 POSSIBLY CONDUCTING STATE - EFERMI(AU) -1.5106362E-01 (RES. CHARGE  7.11E-15;IT. 10)
 TTTTTTTTTTTTTTTTTTTTTTTTTTTTTT PDIG        TELAPSE       17.52 TCPU       15.89
 CHARGE NORMALIZATION FACTOR   1.00000000
 TOTAL ATOMIC CHARGES:
  13.2793818  13.2793818   4.7206182   4.7206182
 TTTTTTTTTTTTTTTTTTTTTTTTTTTTTT MOQGAD      TELAPSE       17.52 TCPU       15.90
 TTTTTTTTTTTTTTTTTTTTTTTTTTTTTT SHELLXN     TELAPSE       18.14 TCPU       16.51
 +++ ENERGIES IN A.U. +++
 ::: EXT EL-POLE                                  -1.1149108508060E+03
 ::: EXT EL-SPHEROPOLE                             1.2967924741254E+01
 ::: BIELET ZONE E-E                               1.1214868705659E+03
 ::: TOTAL E-E                                     1.9543944501172E+01
 ::: TOTAL E-N + N-E                              -6.9361596018573E+01
 ::: TOTAL N-N                                    -1.0500925124678E+02
 ::: KINETIC ENERGY                                4.4237231347727E+01
 ::: PSEUDO TOTAL   ENERGY                        -1.1058967141646E+02
 ::: VIRIAL COEFFICIENT                            5.7144114566580E-01
 TTTTTTTTTTTTTTTTTTTTTTTTTTTTTT MONMO3      TELAPSE       18.70 TCPU       17.07
 NUMERICALLY INTEGRATED DENSITY     36.0005170243
 EXCHANGE ENERGY: -0.148285447460E+02  CORRELATION ENERGY: -0.201881484687E+01
 TTTTTTTTTTTTTTTTTTTTTTTTTTTTTT NUMDFT      TELAPSE       18.81 TCPU       17.18
 CYC   8 ETOT(AU) -1.274370310094E+02 DETOT  7.69E-09 tst  1.16E-11 PX  4.66E-05

 == SCF ENDED - CONVERGENCE ON ENERGY      E(AU) -1.2743703100936E+02 CYCLES   8


 ENERGY EXPRESSION=HARTREE+FOCK EXCH*0.00000+(LDA        EXCH)*1.00000+VWN        CORR

 FINITE TEMPERATURE DFT CALCULATION 
 TEMPERATURE      (T)    1.000000000000E-03 HARTREE 
 ENERGY           (E)   -1.274370310094E+02
 FREE ENERGY      (F)   -1.274370526152E+02
 ELECTRON ENTROPY (S)    2.160589021284E-02
 (E(T)+F(T))/2    (E0)  -1.274370418123E+02


 TOTAL ENERGY(DFT)(AU)(  8) -1.2743704181230E+02 DE 7.7E-09 tester 1.2E-11
 TTTTTTTTTTTTTTTTTTTTTTTTTTTTTT EDFT        TELAPSE       18.81 TCPU       17.18

 VOLUME OF PRIMITIVE CELL (A^3)=          69.483386279452
 *******************************************************************************
 LATTICE PARAMETERS (ANGSTROMS AND DEGREES) - BOHR = 0.5291772083 ANGSTROM
 PRIMITIVE CELL - CENTRING CODE 6/0 VOLUME=    69.483386 - DENSITY 12.230 g/cm^3
         A              B              C           ALPHA      BETA       GAMMA 
     6.29507957     6.29507957     6.29507957   148.085828 148.085828  45.758682
 *******************************************************************************
 ATOMS IN THE ASYMMETRIC UNIT    2 - ATOMS IN THE UNIT CELL:    4
     ATOM                 X/A                 Y/B                 Z/C    
 *******************************************************************************
      1 T 273 TA   -1.520907715662E-03 -1.520907715662E-03  3.397459066778E-20
      2 F 273 TA   -2.515209077157E-01  2.484790922843E-01 -5.000000000000E-01
      3 T 233 AS    4.175209077157E-01  4.175209077157E-01 -2.220446049250E-16
      4 F 233 AS    1.675209077157E-01 -3.324790922843E-01 -5.000000000000E-01

 TRANSFORMATION MATRIX PRIMITIVE-CRYSTALLOGRAPHIC CELL
  0.0000  1.0000  1.0000  1.0000  0.0000  1.0000  1.0000  1.0000  0.0000

 *******************************************************************************
 CRYSTALLOGRAPHIC CELL (VOLUME=        138.96677256)
         A              B              C           ALPHA      BETA       GAMMA 
     3.46125260     3.46125260    11.59963654    90.000000  90.000000  90.000000

 COORDINATES IN THE CRYSTALLOGRAPHIC CELL
     ATOM                 X/A                 Y/B                 Z/C    
 *******************************************************************************
      1 T 273 TA   -6.284333229766E-20  7.983062763155E-20 -1.520907715662E-03
      2 F 273 TA   -5.000000000000E-01  0.000000000000E+00 -2.515209077157E-01
      3 T 233 AS    5.000000000000E-01  5.000000000000E-01 -8.247909228434E-02
      4 F 233 AS    0.000000000000E+00 -5.000000000000E-01 -3.324790922843E-01

 T = ATOM BELONGING TO THE ASYMMETRIC UNIT
 TTTTTTTTTTTTTTTTTTTTTTTTTTTTTT gordsh1     TELAPSE       18.83 TCPU       17.18

 MATRIX SIZE: P(G)   95668, F(G)   48438, P(G) IRR    9519, F(G) IRR    9519
 MAX G-VECTOR INDEX FOR 1- AND 2-ELECTRON INTEGRALS 159

 TTTTTTTTTTTTTTTTTTTTTTTTTTTTTT INPUT       TELAPSE       18.83 TCPU       17.18

 NEIGHBORS OF THE NON-EQUIVALENT ATOMS

 N = NUMBER OF NEIGHBORS AT DISTANCE R
    ATOM  N     R/ANG      R/AU   NEIGHBORS (ATOM LABELS AND CELL INDICES)
   1 TA   2     2.6153     4.9422    4 AS   0 1 0    4 AS   0 0-1
   1 TA   4     2.6215     4.9538    3 AS   0 0 0    3 AS   1 0 1    3 AS   0 1 1
                                     3 AS   1 1 2
   1 TA   4     3.3771     6.3817    2 TA   0 0 0    2 TA   0-1-1    2 TA   1 0 0
                                     2 TA   0 0-1
   1 TA   4     3.4613     6.5408    1 TA  -1 0-1    1 TA   1 0 1    1 TA   0-1-1
                                     1 TA   0 1 1
   1 TA   2     4.2111     7.9577    4 AS  -1 0-1    4 AS   0 0 0
   1 TA   4     4.3382     8.1981    4 AS  -1 1-1    4 AS  -1 0-2    4 AS   1 1 1
                                     4 AS   1 0 0

   3 AS   2     2.6153     4.9422    2 TA   0-1-1    2 TA  -1-1-2
   3 AS   4     2.6215     4.9538    1 TA   0 0 0    1 TA  -1 0-1    1 TA   0-1-1
                                     1 TA  -1-1-2
   3 AS   4     3.3771     6.3817    4 AS  -1 0-1    4 AS  -1-1-2    4 AS   0 0-1
                                     4 AS  -1 0-2
   3 AS   4     3.4613     6.5408    3 AS  -1 0-1    3 AS   1 0 1    3 AS   0-1-1
                                     3 AS   0 1 1
   3 AS   2     4.2111     7.9577    2 TA   0 0-1    2 TA   0-1-2
   3 AS   4     4.3382     8.1981    2 TA   0 0 0    2 TA  -1 0-1    2 TA   0-2-2
                                     2 TA  -1-2-3


 SYMMETRY ALLOWED ELASTIC DISTORTION 1
  0.5773503  0.0000000  0.0000000
  0.0000000  0.5773503  0.0000000
  0.0000000  0.0000000  0.5773503

 SYMMETRY ALLOWED ELASTIC DISTORTION 2
  0.4082483  0.0000000  0.0000000
  0.0000000  0.4082483  0.0000000
  0.0000000  0.0000000 -0.8164966

 ACTIVE SYMMETRY ALLOWED ELASTIC DISTORTION 1
  0.4082483  0.0000000  0.0000000
  0.0000000  0.4082483  0.0000000
  0.0000000  0.0000000 -0.8164966

 SYMMETRY ALLOWED INTERNAL DEGREE(S) OF FREEDOM:   1
 TTTTTTTTTTTTTTTTTTTTTTTTTTTTTT SYMM        TELAPSE       18.88 TCPU       17.22
 TTTTTTTTTTTTTTTTTTTTTTTTTTTTTT INT_SCREEN  TELAPSE       18.88 TCPU       17.22

 *******************************************************************************
 * CELL DEFORMATION
 *******************************************************************************

    ELASTIC STRAIN MATRIX (ADIMENSIONAL)

    1   -0.0453597291   -0.0000000000   -0.0000000000
    2   -0.0000000000   -0.0453597291   -0.0000000000
    3   -0.0000000000   -0.0000000000   -0.0453597291

 LATTICE PARAMETERS (ANGSTROMS AND DEGREES) OF
 (1) ORIGINAL PRIMITIVE CELL
 (2) ORIGINAL CRYSTALLOGRAPHIC CELL
 (3) DEFORMED PRIMITIVE CELL
[...]
-rw-r--r-- 1 fbodo linuxusers         0 Jul 16 08:29 fort.83.pe101
-rw-r--r-- 1 fbodo linuxusers         0 Jul 16 08:29 fort.83.pe102
-rw-r--r-- 1 fbodo linuxusers         0 Jul 16 08:29 fort.83.pe103
-rw-r--r-- 1 fbodo linuxusers         0 Jul 16 08:29 fort.83.pe104
-rw-r--r-- 1 fbodo linuxusers         0 Jul 16 08:29 fort.83.pe105
-rw-r--r-- 1 fbodo linuxusers         0 Jul 16 08:29 fort.83.pe106
-rw-r--r-- 1 fbodo linuxusers         0 Jul 16 08:29 fort.83.pe107
-rw-r--r-- 1 fbodo linuxusers         0 Jul 16 08:29 fort.83.pe108
-rw-r--r-- 1 fbodo linuxusers         0 Jul 16 08:29 fort.83.pe109
-rw-r--r-- 1 fbodo linuxusers         0 Jul 16 08:29 fort.83.pe110
-rw-r--r-- 1 fbodo linuxusers         0 Jul 16 08:29 fort.83.pe111
-rw-r--r-- 1 fbodo linuxusers         0 Jul 16 08:29 fort.83.pe112
-rw-r--r-- 1 fbodo linuxusers         0 Jul 16 08:29 fort.83.pe113
-rw-r--r-- 1 fbodo linuxusers         0 Jul 16 08:29 fort.83.pe114
-rw-r--r-- 1 fbodo linuxusers         0 Jul 16 08:29 fort.83.pe115
-rw-r--r-- 1 fbodo linuxusers         0 Jul 16 08:29 fort.83.pe116
-rw-r--r-- 1 fbodo linuxusers         0 Jul 16 08:29 fort.83.pe117
-rw-r--r-- 1 fbodo linuxusers         0 Jul 16 08:29 fort.83.pe118
-rw-r--r-- 1 fbodo linuxusers         0 Jul 16 08:29 fort.83.pe119
-rw-r--r-- 1 fbodo linuxusers         0 Jul 16 08:29 fort.83.pe120
-rw-r--r-- 1 fbodo linuxusers         0 Jul 16 08:29 fort.83.pe121
-rw-r--r-- 1 fbodo linuxusers         0 Jul 16 08:29 fort.83.pe122
-rw-r--r-- 1 fbodo linuxusers         0 Jul 16 08:29 fort.83.pe123
-rw-r--r-- 1 fbodo linuxusers         0 Jul 16 08:29 fort.83.pe124
-rw-r--r-- 1 fbodo linuxusers         0 Jul 16 08:29 fort.83.pe125
-rw-r--r-- 1 fbodo linuxusers         0 Jul 16 08:29 fort.83.pe126
-rw-r--r-- 1 fbodo linuxusers         0 Jul 16 08:29 fort.83.pe127
-rw-r--r-- 1 fbodo linuxusers   1308120 Jul 16 08:47 fort.8.pe000
-rw-r--r-- 1 fbodo linuxusers   1286696 Jul 16 08:47 fort.8.pe001
-rw-r--r-- 1 fbodo linuxusers   1319000 Jul 16 08:47 fort.8.pe002
-rw-r--r-- 1 fbodo linuxusers   1395528 Jul 16 08:47 fort.8.pe003
-rw-r--r-- 1 fbodo linuxusers   1628760 Jul 16 08:47 fort.8.pe004
-rw-r--r-- 1 fbodo linuxusers   1518984 Jul 16 08:47 fort.8.pe005
-rw-r--r-- 1 fbodo linuxusers   1476744 Jul 16 08:47 fort.8.pe006
-rw-r--r-- 1 fbodo linuxusers   1437336 Jul 16 08:47 fort.8.pe007
-rw-r--r-- 1 fbodo linuxusers   1619928 Jul 16 08:47 fort.8.pe008
-rw-r--r-- 1 fbodo linuxusers   1467864 Jul 16 08:47 fort.8.pe009
-rw-r--r-- 1 fbodo linuxusers   1547160 Jul 16 08:47 fort.8.pe010
-rw-r--r-- 1 fbodo linuxusers   1695960 Jul 16 08:47 fort.8.pe011
-rw-r--r-- 1 fbodo linuxusers   1743384 Jul 16 08:47 fort.8.pe012
-rw-r--r-- 1 fbodo linuxusers   2106072 Jul 16 08:47 fort.8.pe013
-rw-r--r-- 1 fbodo linuxusers   1663512 Jul 16 08:47 fort.8.pe014
-rw-r--r-- 1 fbodo linuxusers   1393176 Jul 16 08:47 fort.8.pe015
-rw-r--r-- 1 fbodo linuxusers   1251480 Jul 16 08:47 fort.8.pe016
-rw-r--r-- 1 fbodo linuxusers   1486680 Jul 16 08:47 fort.8.pe017
-rw-r--r-- 1 fbodo linuxusers   1642008 Jul 16 08:47 fort.8.pe018
-rw-r--r-- 1 fbodo linuxusers   1888344 Jul 16 08:47 fort.8.pe019
-rw-r--r-- 1 fbodo linuxusers   1663512 Jul 16 08:47 fort.8.pe020
-rw-r--r-- 1 fbodo linuxusers   1744728 Jul 16 08:47 fort.8.pe021
-rw-r--r-- 1 fbodo linuxusers   1859736 Jul 16 08:47 fort.8.pe022
-rw-r--r-- 1 fbodo linuxusers   1888344 Jul 16 08:47 fort.8.pe023
-rw-r--r-- 1 fbodo linuxusers   1663512 Jul 16 08:47 fort.8.pe024
-rw-r--r-- 1 fbodo linuxusers   1631640 Jul 16 08:47 fort.8.pe025
-rw-r--r-- 1 fbodo linuxusers   1930584 Jul 16 08:47 fort.8.pe026
-rw-r--r-- 1 fbodo linuxusers   1528344 Jul 16 08:47 fort.8.pe027
-rw-r--r-- 1 fbodo linuxusers   1508184 Jul 16 08:47 fort.8.pe028
-rw-r--r-- 1 fbodo linuxusers   1591320 Jul 16 08:47 fort.8.pe029
-rw-r--r-- 1 fbodo linuxusers   1805784 Jul 16 08:47 fort.8.pe030
-rw-r--r-- 1 fbodo linuxusers   1920216 Jul 16 08:47 fort.8.pe031
-rw-r--r-- 1 fbodo linuxusers   1962456 Jul 16 08:47 fort.8.pe032
-rw-r--r-- 1 fbodo linuxusers   1653720 Jul 16 08:47 fort.8.pe033
-rw-r--r-- 1 fbodo linuxusers   1825944 Jul 16 08:47 fort.8.pe034
-rw-r--r-- 1 fbodo linuxusers   2075544 Jul 16 08:47 fort.8.pe035
-rw-r--r-- 1 fbodo linuxusers   1570584 Jul 16 08:47 fort.8.pe036
-rw-r--r-- 1 fbodo linuxusers   1518552 Jul 16 08:47 fort.8.pe037
-rw-r--r-- 1 fbodo linuxusers   1724264 Jul 16 08:47 fort.8.pe038
-rw-r--r-- 1 fbodo linuxusers   2012840 Jul 16 08:47 fort.8.pe039
-rw-r--r-- 1 fbodo linuxusers   1638936 Jul 16 08:47 fort.8.pe040
-rw-r--r-- 1 fbodo linuxusers   1720808 Jul 16 08:47 fort.8.pe041
-rw-r--r-- 1 fbodo linuxusers   1732216 Jul 16 08:47 fort.8.pe042
-rw-r--r-- 1 fbodo linuxusers   1693736 Jul 16 08:47 fort.8.pe043
-rw-r--r-- 1 fbodo linuxusers   1554456 Jul 16 08:47 fort.8.pe044
-rw-r--r-- 1 fbodo linuxusers   1360808 Jul 16 08:47 fort.8.pe045
-rw-r--r-- 1 fbodo linuxusers   1308776 Jul 16 08:47 fort.8.pe046
-rw-r--r-- 1 fbodo linuxusers   1549080 Jul 16 08:47 fort.8.pe047
-rw-r--r-- 1 fbodo linuxusers   1868184 Jul 16 08:47 fort.8.pe048
-rw-r--r-- 1 fbodo linuxusers   1900056 Jul 16 08:47 fort.8.pe049
-rw-r--r-- 1 fbodo linuxusers   1827288 Jul 16 08:47 fort.8.pe050
-rw-r--r-- 1 fbodo linuxusers   1663512 Jul 16 08:47 fort.8.pe051
-rw-r--r-- 1 fbodo linuxusers   1704408 Jul 16 08:47 fort.8.pe052
-rw-r--r-- 1 fbodo linuxusers   2074200 Jul 16 08:47 fort.8.pe053
-rw-r--r-- 1 fbodo linuxusers   2075544 Jul 16 08:47 fort.8.pe054
-rw-r--r-- 1 fbodo linuxusers   1869528 Jul 16 08:47 fort.8.pe055
-rw-r--r-- 1 fbodo linuxusers   1673880 Jul 16 08:47 fort.8.pe056
-rw-r--r-- 1 fbodo linuxusers   1702488 Jul 16 08:47 fort.8.pe057
-rw-r--r-- 1 fbodo linuxusers   1849368 Jul 16 08:47 fort.8.pe058
-rw-r--r-- 1 fbodo linuxusers   1910424 Jul 16 08:47 fort.8.pe059
-rw-r--r-- 1 fbodo linuxusers   1837656 Jul 16 08:47 fort.8.pe060
-rw-r--r-- 1 fbodo linuxusers   1827288 Jul 16 08:47 fort.8.pe061
-rw-r--r-- 1 fbodo linuxusers   1725608 Jul 16 08:47 fort.8.pe062
-rw-r--r-- 1 fbodo linuxusers   1620968 Jul 16 08:47 fort.8.pe063
-rw-r--r-- 1 fbodo linuxusers   1782552 Jul 16 08:47 fort.8.pe064
-rw-r--r-- 1 fbodo linuxusers   1484264 Jul 16 08:47 fort.8.pe065
-rw-r--r-- 1 fbodo linuxusers   1421864 Jul 16 08:47 fort.8.pe066
-rw-r--r-- 1 fbodo linuxusers   1591320 Jul 16 08:47 fort.8.pe067
-rw-r--r-- 1 fbodo linuxusers   1682024 Jul 16 08:47 fort.8.pe068
-rw-r--r-- 1 fbodo linuxusers   1776296 Jul 16 08:47 fort.8.pe069
-rw-r--r-- 1 fbodo linuxusers   1895640 Jul 16 08:47 fort.8.pe070
-rw-r--r-- 1 fbodo linuxusers   1712656 Jul 16 08:47 fort.8.pe071
-rw-r--r-- 1 fbodo linuxusers   1960560 Jul 16 08:47 fort.8.pe072
-rw-r--r-- 1 fbodo linuxusers   1956416 Jul 16 08:47 fort.8.pe073
-rw-r--r-- 1 fbodo linuxusers   1857968 Jul 16 08:47 fort.8.pe074
-rw-r--r-- 1 fbodo linuxusers   1982768 Jul 16 08:47 fort.8.pe075
-rw-r--r-- 1 fbodo linuxusers   1928544 Jul 16 08:47 fort.8.pe076
-rw-r--r-- 1 fbodo linuxusers   1556144 Jul 16 08:47 fort.8.pe077
-rw-r--r-- 1 fbodo linuxusers   1802480 Jul 16 08:47 fort.8.pe078
-rw-r--r-- 1 fbodo linuxusers   1819872 Jul 16 08:47 fort.8.pe079
-rw-r--r-- 1 fbodo linuxusers   1681440 Jul 16 08:47 fort.8.pe080
-rw-r--r-- 1 fbodo linuxusers   1951200 Jul 16 08:47 fort.8.pe081
-rw-r--r-- 1 fbodo linuxusers   1706784 Jul 16 08:47 fort.8.pe082
-rw-r--r-- 1 fbodo linuxusers   2010912 Jul 16 08:47 fort.8.pe083
-rw-r--r-- 1 fbodo linuxusers   2148464 Jul 16 08:47 fort.8.pe084
-rw-r--r-- 1 fbodo linuxusers   1900208 Jul 16 08:47 fort.8.pe085
-rw-r--r-- 1 fbodo linuxusers   1793376 Jul 16 08:47 fort.8.pe086
-rw-r--r-- 1 fbodo linuxusers   1638704 Jul 16 08:47 fort.8.pe087
-rw-r--r-- 1 fbodo linuxusers   1844720 Jul 16 08:47 fort.8.pe088
-rw-r--r-- 1 fbodo linuxusers   1963488 Jul 16 08:47 fort.8.pe089
-rw-r--r-- 1 fbodo linuxusers   1856928 Jul 16 08:47 fort.8.pe090
-rw-r--r-- 1 fbodo linuxusers   1581408 Jul 16 08:47 fort.8.pe091
-rw-r--r-- 1 fbodo linuxusers   1394208 Jul 16 08:47 fort.8.pe092
-rw-r--r-- 1 fbodo linuxusers   1667584 Jul 16 08:47 fort.8.pe093
-rw-r--r-- 1 fbodo linuxusers   1868416 Jul 16 08:47 fort.8.pe094
-rw-r--r-- 1 fbodo linuxusers   1910880 Jul 16 08:47 fort.8.pe095
-rw-r--r-- 1 fbodo linuxusers   1842480 Jul 16 08:47 fort.8.pe096
-rw-r--r-- 1 fbodo linuxusers   1623344 Jul 16 08:47 fort.8.pe097
-rw-r--r-- 1 fbodo linuxusers   1699104 Jul 16 08:47 fort.8.pe098
-rw-r--r-- 1 fbodo linuxusers   1618544 Jul 16 08:47 fort.8.pe099
-rw-r--r-- 1 fbodo linuxusers   1596464 Jul 16 08:47 fort.8.pe100
-rw-r--r-- 1 fbodo linuxusers   1684704 Jul 16 08:47 fort.8.pe101
-rw-r--r-- 1 fbodo linuxusers   1599920 Jul 16 08:47 fort.8.pe102
-rw-r--r-- 1 fbodo linuxusers   1631792 Jul 16 08:47 fort.8.pe103
-rw-r--r-- 1 fbodo linuxusers   1638048 Jul 16 08:47 fort.8.pe104
-rw-r--r-- 1 fbodo linuxusers   1711472 Jul 16 08:47 fort.8.pe105
-rw-r--r-- 1 fbodo linuxusers   1742000 Jul 16 08:47 fort.8.pe106
-rw-r--r-- 1 fbodo linuxusers   1693152 Jul 16 08:47 fort.8.pe107
-rw-r--r-- 1 fbodo linuxusers   1795872 Jul 16 08:47 fort.8.pe108
-rw-r--r-- 1 fbodo linuxusers   1694496 Jul 16 08:47 fort.8.pe109
-rw-r--r-- 1 fbodo linuxusers   1651952 Jul 16 08:47 fort.8.pe110
-rw-r--r-- 1 fbodo linuxusers   1601264 Jul 16 08:47 fort.8.pe111
-rw-r--r-- 1 fbodo linuxusers   1524960 Jul 16 08:47 fort.8.pe112
-rw-r--r-- 1 fbodo linuxusers   1443056 Jul 16 08:47 fort.8.pe113
-rw-r--r-- 1 fbodo linuxusers   1647152 Jul 16 08:47 fort.8.pe114
-rw-r--r-- 1 fbodo linuxusers   1860192 Jul 16 08:47 fort.8.pe115
-rw-r--r-- 1 fbodo linuxusers   1765920 Jul 16 08:47 fort.8.pe116
-rw-r--r-- 1 fbodo linuxusers   1786080 Jul 16 08:47 fort.8.pe117
-rw-r--r-- 1 fbodo linuxusers   1981728 Jul 16 08:47 fort.8.pe118
-rw-r--r-- 1 fbodo linuxusers   1787424 Jul 16 08:47 fort.8.pe119
-rw-r--r-- 1 fbodo linuxusers   1662624 Jul 16 08:47 fort.8.pe120
-rw-r--r-- 1 fbodo linuxusers   1230432 Jul 16 08:47 fort.8.pe121
-rw-r--r-- 1 fbodo linuxusers   1464752 Jul 16 08:47 fort.8.pe122
-rw-r--r-- 1 fbodo linuxusers   1622968 Jul 16 08:47 fort.8.pe123
-rw-r--r-- 1 fbodo linuxusers   1761128 Jul 16 08:47 fort.8.pe124
-rw-r--r-- 1 fbodo linuxusers   1816944 Jul 16 08:47 fort.8.pe125
-rw-r--r-- 1 fbodo linuxusers   1776072 Jul 16 08:47 fort.8.pe126
-rw-r--r-- 1 fbodo linuxusers   1729144 Jul 16 08:47 fort.8.pe127
lrwxrwxrwx 1 fbodo linuxusers        63 Jul 16 08:29 fort.9 -> /users/fbodo/Application/fbodo/MSSC2025/EOS/TaAs_lda_EOS_ext.f9
-rw-r--r-- 1 fbodo linuxusers     94664 Jul 16 08:47 fort.95.pe000
-rw-r--r-- 1 fbodo linuxusers     94664 Jul 16 08:47 fort.95.pe001
-rw-r--r-- 1 fbodo linuxusers     94664 Jul 16 08:47 fort.95.pe002
-rw-r--r-- 1 fbodo linuxusers     94664 Jul 16 08:47 fort.95.pe003
-rw-r--r-- 1 fbodo linuxusers     94664 Jul 16 08:47 fort.95.pe004
-rw-r--r-- 1 fbodo linuxusers     94664 Jul 16 08:47 fort.95.pe005
-rw-r--r-- 1 fbodo linuxusers     94664 Jul 16 08:47 fort.95.pe006
-rw-r--r-- 1 fbodo linuxusers     94664 Jul 16 08:47 fort.95.pe007
-rw-r--r-- 1 fbodo linuxusers     94664 Jul 16 08:47 fort.95.pe008
-rw-r--r-- 1 fbodo linuxusers     94664 Jul 16 08:47 fort.95.pe009
-rw-r--r-- 1 fbodo linuxusers     94664 Jul 16 08:47 fort.95.pe010
-rw-r--r-- 1 fbodo linuxusers     94664 Jul 16 08:47 fort.95.pe011
-rw-r--r-- 1 fbodo linuxusers     94664 Jul 16 08:47 fort.95.pe012
-rw-r--r-- 1 fbodo linuxusers     94664 Jul 16 08:47 fort.95.pe013
-rw-r--r-- 1 fbodo linuxusers     94664 Jul 16 08:47 fort.95.pe014
-rw-r--r-- 1 fbodo linuxusers     94664 Jul 16 08:47 fort.95.pe015
-rw-r--r-- 1 fbodo linuxusers     94664 Jul 16 08:47 fort.95.pe016
-rw-r--r-- 1 fbodo linuxusers     94664 Jul 16 08:47 fort.95.pe017
-rw-r--r-- 1 fbodo linuxusers     94664 Jul 16 08:47 fort.95.pe018
-rw-r--r-- 1 fbodo linuxusers     94664 Jul 16 08:47 fort.95.pe019
-rw-r--r-- 1 fbodo linuxusers     94664 Jul 16 08:47 fort.95.pe020
-rw-r--r-- 1 fbodo linuxusers     94664 Jul 16 08:47 fort.95.pe021
-rw-r--r-- 1 fbodo linuxusers     94664 Jul 16 08:47 fort.95.pe022
-rw-r--r-- 1 fbodo linuxusers     94664 Jul 16 08:47 fort.95.pe023
-rw-r--r-- 1 fbodo linuxusers     94664 Jul 16 08:47 fort.95.pe024
-rw-r--r-- 1 fbodo linuxusers     94664 Jul 16 08:47 fort.95.pe025
-rw-r--r-- 1 fbodo linuxusers     94664 Jul 16 08:47 fort.95.pe026
-rw-r--r-- 1 fbodo linuxusers     94664 Jul 16 08:47 fort.95.pe027
-rw-r--r-- 1 fbodo linuxusers     94664 Jul 16 08:47 fort.95.pe028
-rw-r--r-- 1 fbodo linuxusers     94664 Jul 16 08:47 fort.95.pe029
-rw-r--r-- 1 fbodo linuxusers     94664 Jul 16 08:47 fort.95.pe030
-rw-r--r-- 1 fbodo linuxusers     94664 Jul 16 08:47 fort.95.pe031
-rw-r--r-- 1 fbodo linuxusers     94664 Jul 16 08:47 fort.95.pe032
-rw-r--r-- 1 fbodo linuxusers     94664 Jul 16 08:47 fort.95.pe033
-rw-r--r-- 1 fbodo linuxusers     94664 Jul 16 08:47 fort.95.pe034
-rw-r--r-- 1 fbodo linuxusers     94664 Jul 16 08:47 fort.95.pe035
-rw-r--r-- 1 fbodo linuxusers     94664 Jul 16 08:47 fort.95.pe036
-rw-r--r-- 1 fbodo linuxusers     94664 Jul 16 08:47 fort.95.pe037
-rw-r--r-- 1 fbodo linuxusers     94664 Jul 16 08:47 fort.95.pe038
-rw-r--r-- 1 fbodo linuxusers     94664 Jul 16 08:47 fort.95.pe039
-rw-r--r-- 1 fbodo linuxusers     94664 Jul 16 08:47 fort.95.pe040
-rw-r--r-- 1 fbodo linuxusers     94664 Jul 16 08:47 fort.95.pe041
-rw-r--r-- 1 fbodo linuxusers     94664 Jul 16 08:47 fort.95.pe042
-rw-r--r-- 1 fbodo linuxusers     94664 Jul 16 08:47 fort.95.pe043
-rw-r--r-- 1 fbodo linuxusers     94664 Jul 16 08:47 fort.95.pe044
-rw-r--r-- 1 fbodo linuxusers     94664 Jul 16 08:47 fort.95.pe045
-rw-r--r-- 1 fbodo linuxusers     94664 Jul 16 08:47 fort.95.pe046
-rw-r--r-- 1 fbodo linuxusers     94664 Jul 16 08:47 fort.95.pe047
-rw-r--r-- 1 fbodo linuxusers     94664 Jul 16 08:47 fort.95.pe048
-rw-r--r-- 1 fbodo linuxusers     94664 Jul 16 08:47 fort.95.pe049
-rw-r--r-- 1 fbodo linuxusers     94664 Jul 16 08:47 fort.95.pe050
-rw-r--r-- 1 fbodo linuxusers     94664 Jul 16 08:47 fort.95.pe051
-rw-r--r-- 1 fbodo linuxusers     94664 Jul 16 08:47 fort.95.pe052
-rw-r--r-- 1 fbodo linuxusers     94664 Jul 16 08:47 fort.95.pe053
-rw-r--r-- 1 fbodo linuxusers     94664 Jul 16 08:47 fort.95.pe054
-rw-r--r-- 1 fbodo linuxusers     94664 Jul 16 08:47 fort.95.pe055
-rw-r--r-- 1 fbodo linuxusers     94664 Jul 16 08:47 fort.95.pe056
-rw-r--r-- 1 fbodo linuxusers     94664 Jul 16 08:47 fort.95.pe057
-rw-r--r-- 1 fbodo linuxusers     94664 Jul 16 08:47 fort.95.pe058
-rw-r--r-- 1 fbodo linuxusers     94664 Jul 16 08:47 fort.95.pe059
-rw-r--r-- 1 fbodo linuxusers     94664 Jul 16 08:47 fort.95.pe060
-rw-r--r-- 1 fbodo linuxusers     94664 Jul 16 08:47 fort.95.pe061
-rw-r--r-- 1 fbodo linuxusers     94664 Jul 16 08:47 fort.95.pe062
-rw-r--r-- 1 fbodo linuxusers     94664 Jul 16 08:47 fort.95.pe063
-rw-r--r-- 1 fbodo linuxusers     94664 Jul 16 08:47 fort.95.pe064
-rw-r--r-- 1 fbodo linuxusers     94664 Jul 16 08:47 fort.95.pe065
-rw-r--r-- 1 fbodo linuxusers     94664 Jul 16 08:47 fort.95.pe066
-rw-r--r-- 1 fbodo linuxusers     94664 Jul 16 08:47 fort.95.pe067
-rw-r--r-- 1 fbodo linuxusers     94664 Jul 16 08:47 fort.95.pe068
-rw-r--r-- 1 fbodo linuxusers     94664 Jul 16 08:47 fort.95.pe069
-rw-r--r-- 1 fbodo linuxusers     94664 Jul 16 08:47 fort.95.pe070
-rw-r--r-- 1 fbodo linuxusers     94664 Jul 16 08:47 fort.95.pe071
-rw-r--r-- 1 fbodo linuxusers     94664 Jul 16 08:47 fort.95.pe072
-rw-r--r-- 1 fbodo linuxusers     94664 Jul 16 08:47 fort.95.pe073
-rw-r--r-- 1 fbodo linuxusers     94664 Jul 16 08:47 fort.95.pe074
-rw-r--r-- 1 fbodo linuxusers     94664 Jul 16 08:47 fort.95.pe075
-rw-r--r-- 1 fbodo linuxusers     94664 Jul 16 08:47 fort.95.pe076
-rw-r--r-- 1 fbodo linuxusers     94664 Jul 16 08:47 fort.95.pe077
-rw-r--r-- 1 fbodo linuxusers     94664 Jul 16 08:47 fort.95.pe078
-rw-r--r-- 1 fbodo linuxusers     94664 Jul 16 08:47 fort.95.pe079
-rw-r--r-- 1 fbodo linuxusers     94664 Jul 16 08:47 fort.95.pe080
-rw-r--r-- 1 fbodo linuxusers     94664 Jul 16 08:47 fort.95.pe081
-rw-r--r-- 1 fbodo linuxusers     94664 Jul 16 08:47 fort.95.pe082
-rw-r--r-- 1 fbodo linuxusers     94664 Jul 16 08:47 fort.95.pe083
-rw-r--r-- 1 fbodo linuxusers     94664 Jul 16 08:47 fort.95.pe084
-rw-r--r-- 1 fbodo linuxusers     94664 Jul 16 08:47 fort.95.pe085
-rw-r--r-- 1 fbodo linuxusers     94664 Jul 16 08:47 fort.95.pe086
-rw-r--r-- 1 fbodo linuxusers     94664 Jul 16 08:47 fort.95.pe087
-rw-r--r-- 1 fbodo linuxusers     94664 Jul 16 08:47 fort.95.pe088
-rw-r--r-- 1 fbodo linuxusers     94664 Jul 16 08:47 fort.95.pe089
-rw-r--r-- 1 fbodo linuxusers     94664 Jul 16 08:47 fort.95.pe090
-rw-r--r-- 1 fbodo linuxusers     94664 Jul 16 08:47 fort.95.pe091
-rw-r--r-- 1 fbodo linuxusers     94664 Jul 16 08:47 fort.95.pe092
-rw-r--r-- 1 fbodo linuxusers     94664 Jul 16 08:47 fort.95.pe093
-rw-r--r-- 1 fbodo linuxusers     94664 Jul 16 08:47 fort.95.pe094
-rw-r--r-- 1 fbodo linuxusers     94664 Jul 16 08:47 fort.95.pe095
-rw-r--r-- 1 fbodo linuxusers     94664 Jul 16 08:47 fort.95.pe096
-rw-r--r-- 1 fbodo linuxusers     94664 Jul 16 08:47 fort.95.pe097
-rw-r--r-- 1 fbodo linuxusers     94664 Jul 16 08:47 fort.95.pe098
-rw-r--r-- 1 fbodo linuxusers     94664 Jul 16 08:47 fort.95.pe099
-rw-r--r-- 1 fbodo linuxusers     94664 Jul 16 08:47 fort.95.pe100
-rw-r--r-- 1 fbodo linuxusers     94664 Jul 16 08:47 fort.95.pe101
-rw-r--r-- 1 fbodo linuxusers     94664 Jul 16 08:47 fort.95.pe102
-rw-r--r-- 1 fbodo linuxusers     94664 Jul 16 08:47 fort.95.pe103
-rw-r--r-- 1 fbodo linuxusers     94664 Jul 16 08:47 fort.95.pe104
-rw-r--r-- 1 fbodo linuxusers     94664 Jul 16 08:47 fort.95.pe105
-rw-r--r-- 1 fbodo linuxusers     94664 Jul 16 08:47 fort.95.pe106
-rw-r--r-- 1 fbodo linuxusers     94664 Jul 16 08:47 fort.95.pe107
-rw-r--r-- 1 fbodo linuxusers     94664 Jul 16 08:47 fort.95.pe108
-rw-r--r-- 1 fbodo linuxusers     94664 Jul 16 08:47 fort.95.pe109
-rw-r--r-- 1 fbodo linuxusers     94664 Jul 16 08:47 fort.95.pe110
-rw-r--r-- 1 fbodo linuxusers     94664 Jul 16 08:47 fort.95.pe111
-rw-r--r-- 1 fbodo linuxusers     94664 Jul 16 08:47 fort.95.pe112
-rw-r--r-- 1 fbodo linuxusers     94664 Jul 16 08:47 fort.95.pe113
-rw-r--r-- 1 fbodo linuxusers     94664 Jul 16 08:47 fort.95.pe114
-rw-r--r-- 1 fbodo linuxusers     94664 Jul 16 08:47 fort.95.pe115
-rw-r--r-- 1 fbodo linuxusers     94664 Jul 16 08:47 fort.95.pe116
-rw-r--r-- 1 fbodo linuxusers     94664 Jul 16 08:47 fort.95.pe117
-rw-r--r-- 1 fbodo linuxusers     94664 Jul 16 08:47 fort.95.pe118
-rw-r--r-- 1 fbodo linuxusers     94664 Jul 16 08:47 fort.95.pe119
-rw-r--r-- 1 fbodo linuxusers     94664 Jul 16 08:47 fort.95.pe120
-rw-r--r-- 1 fbodo linuxusers     94664 Jul 16 08:47 fort.95.pe121
-rw-r--r-- 1 fbodo linuxusers     94664 Jul 16 08:47 fort.95.pe122
-rw-r--r-- 1 fbodo linuxusers     94664 Jul 16 08:47 fort.95.pe123
-rw-r--r-- 1 fbodo linuxusers     94664 Jul 16 08:47 fort.95.pe124
-rw-r--r-- 1 fbodo linuxusers     94664 Jul 16 08:47 fort.95.pe125
-rw-r--r-- 1 fbodo linuxusers     94664 Jul 16 08:47 fort.95.pe126
-rw-r--r-- 1 fbodo linuxusers     94664 Jul 16 08:47 fort.95.pe127
-rw-r--r-- 1 fbodo linuxusers   1235256 Jul 16 08:47 fort.98
-rw-r--r-- 1 fbodo linuxusers        85 Jul 16 08:47 HESSOPT.DAT
-rw-r--r-- 1 fbodo linuxusers      1481 Jul 16 08:29 INPUT
-rw-r--r-- 1 fbodo linuxusers      2474 Jul 16 08:46 optc001
-rw-r--r-- 1 fbodo linuxusers      2474 Jul 16 08:47 optc002
-rw-r--r-- 1 fbodo linuxusers      2474 Jul 16 08:47 optc003
-rw-r--r-- 1 fbodo linuxusers      2474 Jul 16 08:47 optc004
-rw-r--r-- 1 fbodo linuxusers    467758 Jul 16 08:47 OPTINFO.DAT
-rwxr-xr-x 1 fbodo linuxusers 112783328 Jul 16 08:29 Pcrystal
lrwxrwxrwx 1 fbodo linuxusers        65 Jul 16 08:29 SCFOUT.LOG -> /users/fbodo/Application/fbodo/MSSC2025/EOS/TaAs_lda_EOS_ext.out2
================================================================================
Copying output file back on run directory...
================================================================================
Removing temporary directory /lustre/scratch/client/users/fbodo/prova/tmp_p3266171 from each node...
Job terminated
